
Note: Compatibility modes selected: hs a


Circuit: ** sch_path: /foss/designs/analog_fa23_sp24/flashadc/xschem/flashadc_testing_ext.sch

option SCALE: Scale is set to 1e-06 for instance and model parameters
Doing analysis at TEMP = 27.000000 and TNOM = 27.000000


Initial Transient Solution
--------------------------

Node                                   Voltage
----                                   -------
clk                                          0
vdd                                        1.8
vfs                                        1.6
vl                                         0.6
net1                                       0.5
vin                                   0.500054
x1.gnd.t1404                       2.16778e-05
x1.frontanalog_v0p0p1_7.x65.x          1.80002
x1.frontanalog_v0p0p1_7.rsfetsym_0.x2.y      0.00012114
x1.gnd.t1403                      -1.14751e-06
x1.out3.t63                            1.79997
x1.16to4_priorityencoder_v0p0p1_0.x43.y     -7.0645e-05
x1.vdd.t1262                           1.80001
x1.vdd.t1261                           1.79996
x1.vdd.t122                                1.8
x1.frontanalog_v0p0p1_15.x63.a.t4         1.37154
x1.vdd.t121                                1.8
x1.gnd.t801                         2.6982e-05
x1.16to4_priorityencoder_v0p0p1_0.x25.a         1.79999
x1.out0.t127                        0.00011966
x1.gnd.t800                        3.22139e-05
x1.vdd.t1337                               1.8
x1.frontanalog_v0p0p1_10.x63.x         1.80018
x1.i5.t3                               1.80033
x1.vdd.t1332                           1.79999
x1.vdd.t852                            1.80002
x1.16to4_priorityencoder_v0p0p1_0.x36.y    -6.31377e-05
x1.out2.t63                            1.80002
x1.vdd.t851                            1.79985
x1.x6.xsky130_fd_pr__res_xhigh_po_5p73.ra         1.59525
x1.vv16.t6                             1.54112
x1.vfs.t2                              1.59999
x1.x6.xsky130_fd_pr__res_xhigh_po_5p73.rbody_3               0
x1.x6.xsky130_fd_pr__res_xhigh_po_5p73.rend_3               0
x1.gnd.t72                         8.75299e-06
x1.16to4_priorityencoder_v0p0p1_0.x5.x14.b     0.000236525
x1.vdd.t179                            1.79996
x1.a_16719_n13117.t23                  1.21816
x1.a_16599_n13205.t4                  0.596108
x1.a_16541_n13117.t11                 0.137828
x1.gnd.t129                        4.96006e-05
x1.clk.t0                          9.51512e-05
x1.frontanalog_v0p0p1_10.x65.a.t1         1.31507
x1.vdd.t199                            1.79998
x1.x10.xsky130_fd_pr__res_xhigh_po_5p73.ra        0.830569
x1.vv3.t14                            0.776496
x1.vv4.t15                            0.835303
x1.x10.xsky130_fd_pr__res_xhigh_po_5p73.rbody_3               0
x1.x10.xsky130_fd_pr__res_xhigh_po_5p73.rend_3               0
x1.gnd.t49                         8.76644e-06
x1.frontanalog_v0p0p1_3.x65.x          1.80002
x1.vdd.t505                                1.8
x1.vdd.t504                                1.8
x1.vdd.t493                                1.8
x1.frontanalog_v0p0p1_9.x63.x          1.80003
x1.frontanalog_v0p0p1_9.rsfetsym_0.x1.y     0.000112389
x1.vdd.t486                                1.8
x1.out3.t127                           1.79985
x1.gnd.t1341                      -1.30645e-07
x1.gnd.t1340                       2.53042e-05
x1.frontanalog_v0p0p1_14.x65.a.t3         1.33785
x1.frontanalog_v0p0p1_14.x63.a.t4          1.3494
x1.gnd.t426                        5.40306e-07
x1.out2.t127                            1.7999
x1.gnd.t943                       -1.61466e-06
x1.gnd.t942                        4.52175e-05
x1.frontanalog_v0p0p1_5.rsfetsym_0.qn.t1         1.80001
x1.frontanalog_v0p0p1_5.rsfetsym_0.x1.y     0.000114206
x1.gnd.t1376                      -1.92003e-07
x1.gnd.t658                        -5.9425e-08
x1.16to4_priorityencoder_v0p0p1_0.x29.a         1.79994
x1.16to4_priorityencoder_v0p0p1_0.x28.a     6.71929e-05
x1.vdd.t368                                1.8
x1.vdd.t367                                1.8
x1.x18.xsky130_fd_pr__res_xhigh_po_5p73.ra         1.24234
x1.vv10.t11                            1.18825
x1.vv11.t11                            1.24707
x1.x18.xsky130_fd_pr__res_xhigh_po_5p73.rbody_3               0
x1.x18.xsky130_fd_pr__res_xhigh_po_5p73.rend_3               0
x1.gnd.t73                         1.57482e-05
x1.frontanalog_v0p0p1_6.x63.x          1.80002
x1.gnd.t220                        5.63332e-06
x1.gnd.t219                          2.214e-07
x1.gnd.t1339                      -6.28456e-07
x1.out3.t126                           1.79985
x1.gnd.t1338                       2.23139e-05
x1.gnd.t1114                       1.66984e-05
x1.frontanalog_v0p0p1_8.x63.x          1.80003
x1.frontanalog_v0p0p1_8.rsfetsym_0.x1.y     0.000112943
x1.gnd.t1109                        5.3964e-05
x1.gnd.t941                       -9.96264e-07
x1.out2.t126                            1.7999
x1.gnd.t940                        4.02669e-05
x1.out3.t62                            1.79995
x1.vdd.t1260                           1.80001
x1.vdd.t1259                           1.79969
x1.x24.xsky130_fd_pr__res_xhigh_po_5p73.ra        0.712945
x1.vv1.t3                             0.658812
x1.vv2.t0                             0.717684
x1.x24.xsky130_fd_pr__res_xhigh_po_5p73.rbody_3               0
x1.x24.xsky130_fd_pr__res_xhigh_po_5p73.rend_3               0
x1.gnd.t68                          3.0359e-05
x1.vv1.t16                            0.658809
x1.gnd.t393                         5.3456e-05
x1.16to4_priorityencoder_v0p0p1_0.x29.y    -6.20386e-05
x1.gnd.t1504                      -1.88477e-05
x1.gnd.t1503                       0.000158592
x1.gnd.t25                        -3.29057e-06
x1.i0.t5                               1.80002
x1.gnd.t24                          6.4755e-05
x1.vdd.t710                            1.80001
x1.out0.t63                        0.000180809
x1.vdd.t709                            1.79987
x1.vdd.t1258                           1.80001
x1.out3.t61                            1.79995
x1.vdd.t1257                           1.79995
x1.clk.t1                           7.2712e-05
x1.gnd.t234                       -6.92096e-08
x1.gnd.t233                        7.99691e-08
x1.gnd.t1431                        6.5959e-06
x1.16to4_priorityencoder_v0p0p1_0.x5.x17.a         1.80004
x1.gnd.t516                         3.7656e-05
x1.frontanalog_v0p0p1_14.rsfetsym_0.x1.y     0.000112233
x1.frontanalog_v0p0p1_14.x63.x         1.80002
x1.vdd.t1124                               1.8
x1.vdd.t1117                               1.8
x1.i2.t5                           9.05166e-05
x1.vdd.t29                                 1.8
x1.vdd.t28                             1.79998
x1.frontanalog_v0p0p1_5.x63.x          1.80002
x1.gnd.t218                        1.69391e-05
x1.gnd.t214                        5.40588e-05
x1.vdd.t1336                               1.8
x1.frontanalog_v0p0p1_10.rsfetsym_0.x1.y     0.000110901
x1.vdd.t1330                               1.8
x1.vdd.t70                             1.80001
x1.vdd.t68                                 1.8
x1.vdd.t69                             1.79996
x1.vdd.t1012                           1.80001
x1.out1.t63                            1.79997
x1.vdd.t1011                           1.79992
x1.gnd.t1337                      -1.35137e-06
x1.out3.t125                           1.79985
x1.gnd.t1336                       4.93081e-05
x1.gnd.t111                        1.09026e-06
x1.frontanalog_v0p0p1_8.rsfetsym_0.qn.t5         1.80001
x1.gnd.t110                        3.02425e-07
x1.gnd.t939                        2.78074e-07
x1.out2.t125                            1.7999
x1.gnd.t938                        9.81774e-06
x1.gnd.t959                        4.84258e-05
x1.i5.t5                               1.80036
x1.gnd.t958                        1.21753e-06
x1.vv9.t16                             1.12943
x1.gnd.t61                         5.45765e-05
x1.vdd.t850                            1.80001
x1.out2.t62                            1.80001
x1.vdd.t849                            1.79986
x1.x44.xsky130_fd_pr__res_xhigh_po_5p73.ra          1.5364
x1.vv15.t10                             1.4824
x1.vv16.t11                            1.54112
x1.x44.xsky130_fd_pr__res_xhigh_po_5p73.rbody_3               0
x1.x44.xsky130_fd_pr__res_xhigh_po_5p73.rend_3               0
x1.gnd.t34                         1.10888e-06
x1.out1.t127                            1.7999
x1.gnd.t1092                      -1.49222e-06
x1.gnd.t1091                       4.09491e-05
x1.gnd.t606                        2.72097e-05
x1.frontanalog_v0p0p1_12.x65.x         1.80002
x1.frontanalog_v0p0p1_12.rsfetsym_0.x2.y     0.000117099
x1.gnd.t605                       -3.42453e-06
x1.out2.t61                            1.79999
x1.vdd.t848                            1.80001
x1.vdd.t847                            1.79981
x1.gnd.t1502                       -1.7795e-05
x1.gnd.t1501                       0.000122193
x1.frontanalog_v0p0p1_7.rsfetsym_0.x1.y     0.000114081
x1.frontanalog_v0p0p1_7.x63.x          1.80002
x1.vdd.t873                                1.8
x1.vdd.t866                                1.8
x1.out0.t126                       6.29437e-05
x1.gnd.t799                        1.28103e-05
x1.gnd.t798                        2.33309e-05
x1.16to4_priorityencoder_v0p0p1_0.x7.y     0.000295915
x1.vdd.t1063                               1.8
x1.vdd.t163                            1.79999
x1.frontanalog_v0p0p1_2.x65.a.t1         1.30337
x1.frontanalog_v0p0p1_2.x63.a.t4         1.32053
x1.gnd.t578                        4.39464e-06
x1.vdd.t198                                1.8
x1.frontanalog_v0p0p1_15.x65.x         1.80002
x1.frontanalog_v0p0p1_15.rsfetsym_0.qn.t3     1.54061e-05
x1.vdd.t194                            1.79999
x1.gnd.t1335                        4.4755e-07
x1.out3.t124                           1.79985
x1.gnd.t1334                       1.79778e-06
x1.gnd.t797                        1.30838e-05
x1.out0.t125                       6.27761e-05
x1.gnd.t796                        3.21112e-05
x1.16to4_priorityencoder_v0p0p1_0.x3.a0     1.65907e-05
x1.gnd.t1393                      -3.43232e-07
x1.gnd.t1392                      -1.01092e-06
x1.out3.t60                                1.8
x1.vdd.t1256                               1.8
x1.vdd.t1255                           1.79998
x1.frontanalog_v0p0p1_6.rsfetsym_0.qn.t0     1.40197e-05
x1.i10.t5                              1.80001
x1.vdd.t124                                1.8
x1.vdd.t123                                1.8
x1.16to4_priorityencoder_v0p0p1_0.x5.x18.c    -3.97279e-05
x1.gnd.t176                        2.36326e-06
x1.gnd.t407                       -2.61741e-08
x1.i13.t5                           2.6526e-06
x1.gnd.t406                        6.37948e-07
x1.out3.t123                           1.79986
x1.gnd.t1333                      -7.25654e-07
x1.gnd.t1332                       2.43727e-05
x1.16to4_priorityencoder_v0p0p1_0.x36.a         1.79994
x1.gnd.t515                       -1.53002e-05
x1.gnd.t514                        2.15745e-05
x1.ptat_v0p0p0_mag_0.vout.t3          0.595164
x1.gnd.t346                         4.6713e-05
x1.gnd.t337                        1.02173e-05
x1.vdd.t1254                               1.8
x1.out3.t59                            1.79993
x1.vdd.t1253                            1.7998
x1.vdd.t499                                1.8
x1.frontanalog_v0p0p1_2.x63.a.t5         1.32052
x1.vdd.t498                                1.8
x1.frontanalog_v0p0p1_11.x63.x         1.80003
x1.vdd.t160                                1.8
x1.vdd.t159                                1.8
x1.vdd.t1502                               1.8
x1.gnd.t0                          5.85922e-05
x1.x68.xsky130_fd_pr__res_xhigh_po_5p73.ra         1.41881
x1.vv13.t10                             1.3647
x1.vv14.t8                             1.42355
x1.x68.xsky130_fd_pr__res_xhigh_po_5p73.rbody_3               0
x1.x68.xsky130_fd_pr__res_xhigh_po_5p73.rend_3               0
x1.gnd.t1126                        2.7997e-05
x1.frontanalog_v0p0p1_6.x65.x          1.80002
x1.frontanalog_v0p0p1_6.rsfetsym_0.x2.y     0.000121204
x1.gnd.t1125                      -3.79651e-06
x1.gnd.t1389                       5.18789e-06
x1.16to4_priorityencoder_v0p0p1_0.x21.a         1.80001
x1.16to4_priorityencoder_v0p0p1_0.x22.a     3.28979e-05
x1.gnd.t1388                       9.40268e-06
x1.vin.t0                             0.500047
x1.gnd.t413                        5.05369e-05
x1.gnd.t98                         2.32394e-05
x1.frontanalog_v0p0p1_15.x63.x         1.80002
x1.frontanalog_v0p0p1_15.rsfetsym_0.x1.y     0.000112503
x1.gnd.t93                         5.21746e-05
x1.vin.t1                             0.500054
x1.x73.p2                              1.28392
x1.x73.cg_int1                    -8.39639e-10
x1.error                               1.05356
x1.x73.rg_3                                  0
x1.gnd.t1090                       3.41267e-07
x1.out1.t126                           1.79991
x1.gnd.t1089                       5.43109e-07
x1.16to4_priorityencoder_v0p0p1_0.x5.x22.c     0.000251631
x1.vdd.t241                                1.8
x1.vdd.t240                            1.79999
x1.out2.t60                            1.79997
x1.vdd.t846                            1.80001
x1.vdd.t845                            1.79998
x1.x77.xsky130_fd_pr__res_xhigh_po_5p73.ra        0.830569
x1.vv3.t5                             0.776495
x1.vv4.t7                             0.835303
x1.x77.xsky130_fd_pr__res_xhigh_po_5p73.rbody_3               0
x1.x77.xsky130_fd_pr__res_xhigh_po_5p73.rend_3               0
x1.gnd.t17                         2.58178e-05
x1.16to4_priorityencoder_v0p0p1_0.x43.a         1.79997
x1.vdd.t1483                               1.8
x1.vdd.t1482                           1.79999
x1.vdd.t502                                1.8
x1.frontanalog_v0p0p1_4.x65.a.t4         1.30649
x1.vdd.t501                                1.8
x1.x80.xsky130_fd_pr__res_xhigh_po_5p73.ra         1.18352
x1.vv9.t15                             1.12943
x1.vv10.t15                            1.18825
x1.x80.xsky130_fd_pr__res_xhigh_po_5p73.rbody_3               0
x1.x80.xsky130_fd_pr__res_xhigh_po_5p73.rend_3               0
x1.out0.t62                        0.000231792
x1.vdd.t708                                1.8
x1.vdd.t707                            1.79989
x1.16to4_priorityencoder_v0p0p1_0.x5.x22.a     6.53953e-05
x1.gnd.t521                       -8.79006e-07
x1.gnd.t520                        1.98821e-05
x1.out0.t124                       6.40067e-05
x1.gnd.t795                        1.31305e-05
x1.gnd.t794                        1.02723e-05
x1.gnd.t793                        1.47718e-05
x1.out0.t123                        6.7686e-05
x1.gnd.t792                        3.66573e-05
x1.x85.xsky130_fd_pr__res_xhigh_po_5p73.ra        0.771761
x1.vv2.t15                            0.717684
x1.vv3.t15                            0.776495
x1.x85.xsky130_fd_pr__res_xhigh_po_5p73.rbody_3               0
x1.x85.xsky130_fd_pr__res_xhigh_po_5p73.rend_3               0
x1.gnd.t69                         3.03841e-05
x1.vdd.t1062                               1.8
x1.vdd.t1061                           1.79994
x1.x87.xsky130_fd_pr__res_xhigh_po_5p73.ra         1.35996
x1.vv12.t11                            1.30588
x1.vv13.t6                              1.3647
x1.x87.xsky130_fd_pr__res_xhigh_po_5p73.rbody_3               0
x1.x87.xsky130_fd_pr__res_xhigh_po_5p73.rend_3               0
x1.vdd.t706                            1.80001
x1.out0.t61                        0.000231558
x1.vdd.t705                            1.79984
x1.out3.t122                           1.79986
x1.gnd.t1331                       -6.4568e-07
x1.gnd.t1330                       3.07641e-05
x1.frontanalog_v0p0p1_9.x65.a.t1          1.3138
x1.clk.t2                          6.17735e-05
x1.frontanalog_v0p0p1_9.x63.a.t3         1.32903
x1.vdd.t200                            1.79999
x1.out2.t124                           1.79992
x1.gnd.t937                       -6.91355e-08
x1.gnd.t936                        5.33163e-06
x1.vdd.t520                                1.8
x1.vdd.t515                                1.8
x1.vdd.t1252                           1.79999
x1.out3.t58                            1.79988
x1.vdd.t1251                           1.79987
x1.frontanalog_v0p0p1_4.x63.x          1.80002
x1.vdd.t212                                1.8
x1.vdd.t211                                1.8
x1.gnd.t1088                       1.60186e-07
x1.out1.t125                            1.7999
x1.gnd.t1087                       1.83294e-05
x1.vin.t2                             0.500047
x1.gnd.t370                        5.40265e-05
x1.gnd.t532                        2.34646e-05
x1.frontanalog_v0p0p1_1.x63.x          1.80002
x1.frontanalog_v0p0p1_1.rsfetsym_0.x1.y     0.000114119
x1.gnd.t527                        5.39729e-05
x1.frontanalog_v0p0p1_10.rsfetsym_0.x2.y      9.5034e-05
x1.frontanalog_v0p0p1_10.x65.x         1.80075
x1.gnd.t673                        1.46803e-05
x1.gnd.t672                       -4.04978e-06
x1.gnd.t1329                       5.73854e-07
x1.out3.t121                           1.79986
x1.gnd.t1328                       3.08135e-06
x1.vdd.t878                            1.80001
x1.i5.t6                               1.80033
x1.vdd.t877                            1.79996
x1.gnd.t513                       -7.05681e-06
x1.gnd.t512                        3.18872e-06
x1.vdd.t1311                               1.8
x1.vdd.t1310                           1.79999
x1.frontanalog_v0p0p1_2.rsfetsym_0.x1.y     0.000112857
x1.frontanalog_v0p0p1_2.x63.x          1.80002
x1.gnd.t1523                       1.67244e-05
x1.gnd.t1518                       5.38772e-05
x1.vdd.t432                                1.8
x1.vdd.t431                            1.79994
x1.x105.xsky130_fd_pr__res_xhigh_po_5p73.ra        0.137439
x1.gnd.t23                         1.50373e-05
x1.a_16541_n13117.t0                  0.137793
x1.x105.xsky130_fd_pr__res_xhigh_po_5p73.rbody_3               0
x1.x105.xsky130_fd_pr__res_xhigh_po_5p73.rend_3               0
x1.gnd.t22                         4.79705e-06
x1.i1.t0                           2.48042e-05
x1.frontanalog_v0p0p1_14.rsfetsym_0.x2.y     0.000118507
x1.gnd.t78                        -2.20308e-07
x1.gnd.t77                        -5.54469e-08
x1.gnd.t1363                       7.95573e-06
x1.frontanalog_v0p0p1_9.x65.a.t4         1.31371
x1.gnd.t576                       -5.96543e-07
x1.x108.xsky130_fd_pr__res_xhigh_po_5p73.ra        0.771761
x1.vv2.t6                             0.717684
x1.vv3.t7                             0.776496
x1.x108.xsky130_fd_pr__res_xhigh_po_5p73.rbody_3               0
x1.x108.xsky130_fd_pr__res_xhigh_po_5p73.rend_3               0
x1.gnd.t104                        2.24028e-05
x1.vdd.t327                            1.80001
x1.i13.t6                           3.2277e-06
x1.vdd.t60                             1.79999
x1.16to4_priorityencoder_v0p0p1_0.x3.x18.c         1.79995
x1.gnd.t75                        -6.31205e-06
x1.gnd.t1177                      -3.67583e-06
x1.gnd.t1176                       0.000125583
x1.frontanalog_v0p0p1_9.x63.a.t0         1.32913
x1.frontanalog_v0p0p1_9.x65.a.t5         1.31367
x1.gnd.t1364                       5.87885e-07
x1.out2.t59                            1.80002
x1.vdd.t844                            1.80001
x1.vdd.t843                            1.79996
x1.out0.t60                        0.000231623
x1.vdd.t704                                1.8
x1.vdd.t703                             1.7999
x1.vdd.t702                            1.80001
x1.out0.t59                        0.000226974
x1.vdd.t701                            1.79985
x1.i6.t0                                1.8001
x1.frontanalog_v0p0p1_9.rsfetsym_0.qn.t5     2.15077e-05
x1.vdd.t377                                1.8
x1.vdd.t161                            1.79999
x1.vdd.t1045                               1.8
x1.vdd.t1040                               1.8
x1.gnd.t1557                      -1.61753e-05
x1.gnd.t1556                        0.00034947
x1.gnd.t1086                       5.46569e-08
x1.out1.t124                           1.79991
x1.gnd.t1085                        3.2765e-06
x1.out2.t58                            1.80001
x1.vdd.t842                            1.80002
x1.vdd.t841                            1.79979
x1.frontanalog_v0p0p1_3.rsfetsym_0.x2.y     0.000121043
x1.gnd.t627                        2.13823e-05
x1.gnd.t626                       -4.27236e-06
x1.vdd.t65                                 1.8
x1.vdd.t67                                 1.8
x1.vdd.t66                             1.79998
x1.frontanalog_v0p0p1_13.rsfetsym_0.x1.y     0.000111951
x1.frontanalog_v0p0p1_13.x63.x         1.80002
x1.gnd.t654                        1.65284e-05
x1.gnd.t650                        5.38763e-05
x1.i5.t4                               1.80033
x1.gnd.t1413                       1.87685e-07
x1.frontanalog_v0p0p1_13.x65.x         1.80002
x1.frontanalog_v0p0p1_13.rsfetsym_0.qn.t2         1.80001
x1.gnd.t120                       -6.13767e-09
x1.i13.t7                          2.56916e-06
x1.gnd.t408                       -2.28834e-06
x1.16to4_priorityencoder_v0p0p1_0.x42.a     8.64076e-05
x1.16to4_priorityencoder_v0p0p1_0.x41.a         1.80002
x1.vdd.t379                                1.8
x1.vdd.t378                                1.8
x1.16to4_priorityencoder_v0p0p1_0.x3.x22.c     0.000232175
x1.vdd.t531                                1.8
x1.vdd.t530                            1.79999
x1.x129.xsky130_fd_pr__res_xhigh_po_5p73.ra        0.712944
x1.vv1.t10                            0.658812
x1.vv2.t8                             0.717683
x1.x129.xsky130_fd_pr__res_xhigh_po_5p73.rbody_3               0
x1.x129.xsky130_fd_pr__res_xhigh_po_5p73.rend_3               0
x1.gnd.t50                         2.42303e-05
x1.vdd.t840                                1.8
x1.out2.t57                            1.79996
x1.vdd.t839                            1.79996
x1.out1.t123                           1.79992
x1.gnd.t1084                       1.40921e-07
x1.gnd.t1083                       3.36539e-06
x1.frontanalog_v0p0p1_7.x63.a.t0         1.32599
x1.frontanalog_v0p0p1_7.x65.a.t4         1.30981
x1.vdd.t1341                            1.7999
x1.vdd.t477                            1.79998
x1.i9.t4                           4.70562e-06
x1.gnd.t1145                       -2.0836e-07
x1.gnd.t450                       -3.79631e-08
x1.vv7.t16                             1.01177
x1.x134.p2                             1.32919
x1.x134.cg_int1                   -1.97223e-09
x1.x134.rg_3                                 0
x1.a_16719_n13117.t22                  1.21817
x1.a_16599_n13205.t5                  0.596109
x1.a_16541_n13117.t10                 0.137838
x1.gnd.t130                        4.90539e-05
x1.gnd.t1193                       2.75646e-05
x1.gnd.t173                        6.67249e-05
x1.out0.t122                       8.83377e-05
x1.gnd.t791                        1.89125e-05
x1.gnd.t790                        7.20224e-06
x1.gnd.t648                       -2.41913e-06
x1.16to4_priorityencoder_v0p0p1_0.x3.x14.a     0.000188778
x1.gnd.t647                        0.000142464
x1.vdd.t354                            1.79998
x1.frontanalog_v0p0p1_2.x65.x          1.80002
x1.gnd.t1432                       5.98785e-06
x1.gnd.t256                        2.29537e-07
x1.vdd.t1103                           1.80001
x1.vdd.t1102                           1.79973
x1.a_16719_n13117.t3                   1.21817
x1.a_16719_n13117.t2                   1.21818
x1.a_16599_n13205.t3                  0.596128
x1.gnd.t1209                        4.9055e-05
x1.x143.xsky130_fd_pr__res_xhigh_po_5p73.ra        0.948214
x1.vv5.t8                             0.894124
x1.vv6.t9                              0.95295
x1.x143.xsky130_fd_pr__res_xhigh_po_5p73.rbody_3               0
x1.x143.xsky130_fd_pr__res_xhigh_po_5p73.rend_3               0
x1.vdd.t174                                1.8
x1.frontanalog_v0p0p1_8.x65.x          1.80002
x1.frontanalog_v0p0p1_8.rsfetsym_0.x2.y     0.000119662
x1.vdd.t167                                1.8
x1.gnd.t1327                      -2.31063e-07
x1.out3.t120                           1.79987
x1.gnd.t1326                       1.12466e-05
x1.gnd.t1175                      -2.83834e-06
x1.gnd.t1174                       9.54361e-05
x1.vdd.t838                            1.80002
x1.out2.t56                            1.80002
x1.vdd.t837                            1.79986
x1.vdd.t1264                               1.8
x1.frontanalog_v0p0p1_13.x63.a.t4         1.33426
x1.vdd.t1263                               1.8
x1.frontanalog_v0p0p1_3.x63.x          1.80002
x1.i13.t4                          2.99947e-06
x1.gnd.t1438                      -1.05096e-08
x1.frontanalog_v0p0p1_5.x65.x          1.80002
x1.frontanalog_v0p0p1_5.rsfetsym_0.qn.t4         1.80001
x1.gnd.t1472                      -2.24222e-08
x1.gnd.t1500                       -1.3589e-05
x1.gnd.t1499                       3.53849e-06
x1.x152.xsky130_fd_pr__res_xhigh_po_5p73.ra         1.00704
x1.vv6.t2                              0.95295
x1.vv7.t3                              1.01177
x1.x152.xsky130_fd_pr__res_xhigh_po_5p73.rbody_3               0
x1.x152.xsky130_fd_pr__res_xhigh_po_5p73.rend_3               0
x1.gnd.t51                         1.10422e-06
x1.i6.t3                                1.8001
x1.vdd.t492                                1.8
x1.vdd.t489                            1.79999
x1.ptat_v0p0p0_mag_0.vout.t4          0.595165
x1.gnd.t347                        4.17249e-05
x1.gnd.t237                        2.03747e-05
x1.vdd.t120                                1.8
x1.vdd.t119                            1.79996
x1.frontanalog_v0p0p1_0.rsfetsym_0.x1.y     0.000113591
x1.frontanalog_v0p0p1_0.x63.x          1.80002
x1.gnd.t172                        2.34894e-05
x1.gnd.t168                        5.23364e-05
x1.gnd.t1555                      -1.63359e-05
x1.gnd.t1554                       8.47764e-07
x1.vdd.t1315                           1.79992
x1.frontanalog_v0p0p1_10.x63.a.t4         1.33047
x1.frontanalog_v0p0p1_10.x65.a.t0         1.31536
x1.vdd.t453                            1.79999
x1.out2.t123                           1.79989
x1.gnd.t935                       -2.37186e-07
x1.gnd.t934                        1.26302e-05
x1.frontanalog_v0p0p1_0.rsfetsym_0.x2.y     0.000119682
x1.frontanalog_v0p0p1_0.x65.x          1.80001
x1.gnd.t273                         2.1021e-05
x1.gnd.t272                       -4.18735e-06
x1.out1.t62                            1.79995
x1.vdd.t1010                               1.8
x1.vdd.t1009                           1.79998
x1.vin.t3                             0.500046
x1.gnd.t65                         4.89949e-05
x1.vdd.t880                            1.80001
x1.i5.t7                               1.80033
x1.vdd.t879                            1.79999
x1.gnd.t286                        5.66112e-06
x1.gnd.t285                        1.89893e-07
x1.vdd.t1008                               1.8
x1.out1.t61                            1.79995
x1.vdd.t1007                               1.8
x1.out0.t58                        0.000207582
x1.vdd.t700                                1.8
x1.vdd.t699                            1.79993
x1.frontanalog_v0p0p1_4.rsfetsym_0.x2.y     0.000121476
x1.frontanalog_v0p0p1_4.x65.x          1.80002
x1.gnd.t1192                       2.80682e-05
x1.gnd.t1191                      -2.75597e-06
x1.gnd.t1325                       5.54762e-07
x1.out3.t119                           1.79987
x1.gnd.t1324                        4.4909e-06
x1.vdd.t1133                               1.8
x1.frontanalog_v0p0p1_5.x63.a.t4         1.32399
x1.vdd.t1132                               1.8
x1.gnd.t789                        2.55761e-05
x1.out0.t121                       0.000103619
x1.gnd.t788                       -1.34724e-06
x1.ptat_v0p0p0_mag_0.vout.t5          0.595164
x1.gnd.t348                        4.58558e-05
x1.vdd.t1060                               1.8
x1.vdd.t1059                           1.79997
x1.vdd.t430                            1.80001
x1.vdd.t429                            1.79987
x1.vdd.t1101                           1.80001
x1.vdd.t1100                           1.79979
x1.vdd.t237                            1.79992
x1.frontanalog_v0p0p1_3.x63.a.t4         1.32227
x1.frontanalog_v0p0p1_3.x65.a.t2         1.30551
x1.vdd.t236                            1.79999
x1.out3.t118                           1.79988
x1.gnd.t1323                      -2.44654e-07
x1.gnd.t1322                       1.12972e-05
x1.vdd.t854                                1.8
x1.frontanalog_v0p0p1_15.x65.a.t4         1.36352
x1.vdd.t853                                1.8
x1.gnd.t428                        7.45108e-06
x1.frontanalog_v0p0p1_14.x63.a.t5         1.34939
x1.gnd.t427                       -5.67734e-07
x1.clk.t3                          7.31989e-05
x1.gnd.t236                       -6.89497e-08
x1.gnd.t235                        7.97525e-08
x1.frontanalog_v0p0p1_1.rsfetsym_0.x2.y     0.000121381
x1.frontanalog_v0p0p1_1.x65.x          1.80002
x1.gnd.t1448                       2.81906e-05
x1.gnd.t1447                      -2.71802e-06
x1.vdd.t519                                1.8
x1.gnd.t253                       -3.02381e-06
x1.16to4_priorityencoder_v0p0p1_0.x3.x17.c     0.000151482
x1.gnd.t252                       -1.15863e-06
x1.frontanalog_v0p0p1_4.x65.a.t0         1.30648
x1.frontanalog_v0p0p1_4.x63.a.t4          1.3231
x1.gnd.t53                         5.31921e-07
x1.frontanalog_v0p0p1_9.rsfetsym_0.qn.t0     2.32857e-05
x1.i6.t5                               1.80011
x1.vdd.t162                                1.8
x1.out3.t57                            1.79995
x1.vdd.t1250                               1.8
x1.vdd.t1249                           1.79988
x1.x186.xsky130_fd_pr__res_xhigh_po_5p73.ra         1.18352
x1.vv9.t5                              1.12943
x1.vv10.t5                             1.18825
x1.x186.xsky130_fd_pr__res_xhigh_po_5p73.rbody_3               0
x1.x186.xsky130_fd_pr__res_xhigh_po_5p73.rend_3               0
x1.vdd.t14                             1.79999
x1.gnd.t787                        2.53879e-05
x1.out0.t120                       0.000102427
x1.gnd.t786                         6.1642e-06
x1.out1.t122                           1.79989
x1.gnd.t1082                      -1.36952e-06
x1.gnd.t1081                         3.476e-05
x1.x190.xsky130_fd_pr__res_xhigh_po_5p73.ra         1.30115
x1.vv11.t8                             1.24707
x1.vv12.t8                             1.30588
x1.x190.xsky130_fd_pr__res_xhigh_po_5p73.rbody_3               0
x1.x190.xsky130_fd_pr__res_xhigh_po_5p73.rend_3               0
x1.gnd.t292                        1.57674e-05
x1.x191.xsky130_fd_pr__res_xhigh_po_5p73.ra        0.771761
x1.vv2.t9                             0.717683
x1.vv3.t8                             0.776496
x1.x191.xsky130_fd_pr__res_xhigh_po_5p73.rbody_3               0
x1.x191.xsky130_fd_pr__res_xhigh_po_5p73.rend_3               0
x1.gnd.t164                         2.4246e-05
x1.16to4_priorityencoder_v0p0p1_0.x3.x19.c         1.80076
x1.gnd.t47                        -2.92654e-06
x1.vdd.t1025                               1.8
x1.vdd.t1024                               1.8
x1.vv12.t16                            1.30588
x1.gnd.t151                        5.49347e-05
x1.x195.xsky130_fd_pr__res_xhigh_po_5p73.ra         1.35996
x1.vv12.t12                            1.30588
x1.vv13.t8                              1.3647
x1.x195.xsky130_fd_pr__res_xhigh_po_5p73.rbody_3               0
x1.x195.xsky130_fd_pr__res_xhigh_po_5p73.rend_3               0
x1.out3.t117                           1.79988
x1.gnd.t1321                      -1.16835e-07
x1.gnd.t1320                       9.00246e-06
x1.16to4_priorityencoder_v0p0p1_0.x27.a         1.80012
x1.gnd.t1370                        6.9034e-06
x1.gnd.t1369                       1.91173e-07
x1.vdd.t698                                1.8
x1.out0.t57                        0.000194359
x1.vdd.t697                            1.79998
x1.vdd.t836                                1.8
x1.out2.t55                            1.79999
x1.vdd.t835                            1.79996
x1.frontanalog_v0p0p1_9.rsfetsym_0.x2.y     0.000119319
x1.frontanalog_v0p0p1_9.x65.x          1.80002
x1.vdd.t397                                1.8
x1.vdd.t392                                1.8
x1.vdd.t1014                               1.8
x1.frontanalog_v0p0p1_1.x65.a.t4         1.31104
x1.vdd.t1013                               1.8
x1.gnd.t523                        7.92166e-06
x1.frontanalog_v0p0p1_7.x63.a.t4         1.32588
x1.gnd.t522                       -5.79143e-07
x1.frontanalog_v0p0p1_10.rsfetsym_0.qn.t1      0.00331741
x1.vdd.t582                                1.8
x1.vdd.t578                            1.79998
x1.gnd.t574                        2.31633e-05
x1.gnd.t569                        5.21785e-05
x1.vdd.t1044                               1.8
x1.vdd.t428                            1.80001
x1.vdd.t427                            1.79991
x1.vdd.t1278                           1.80001
x1.i4.t5                           8.99639e-05
x1.vdd.t1277                           1.79996
x1.vdd.t1006                               1.8
x1.out1.t60                            1.79993
x1.vdd.t1005                           1.79998
x1.vdd.t118                                1.8
x1.frontanalog_v0p0p1_13.rsfetsym_0.qn.t1         1.80001
x1.vdd.t114                            1.79999
x1.gnd.t785                        2.95544e-05
x1.out0.t119                       0.000121423
x1.gnd.t784                       -7.25988e-06
x1.vdd.t696                                1.8
x1.out0.t56                        0.000194965
x1.vdd.t695                            1.79995
x1.frontanalog_v0p0p1_11.rsfetsym_0.x1.y      0.00011198
x1.vdd.t1071                               1.8
x1.vdd.t1066                               1.8
x1.out0.t118                       0.000144364
x1.gnd.t783                        2.95148e-05
x1.gnd.t782                       -7.89644e-06
x1.x214.xsky130_fd_pr__res_xhigh_po_5p73.ra         1.59526
x1.vv16.t15                            1.54112
x1.vfs.t7                                  1.6
x1.x214.xsky130_fd_pr__res_xhigh_po_5p73.rbody_3               0
x1.x214.xsky130_fd_pr__res_xhigh_po_5p73.rend_3               0
x1.gnd.t48                         1.12822e-06
x1.frontanalog_v0p0p1_3.rsfetsym_0.qn.t3         1.80001
x1.vdd.t541                                1.8
x1.vdd.t537                            1.79999
x1.vdd.t1023                               1.8
x1.vdd.t1022                               1.8
x1.vdd.t1004                           1.80002
x1.out1.t59                            1.80002
x1.vdd.t1003                           1.79985
x1.x218.xsky130_fd_pr__res_xhigh_po_5p73.ra        0.830569
x1.vv3.t4                             0.776495
x1.vv4.t6                             0.835303
x1.x218.xsky130_fd_pr__res_xhigh_po_5p73.rbody_3               0
x1.x218.xsky130_fd_pr__res_xhigh_po_5p73.rend_3               0
x1.vv15.t16                            1.48241
x1.x219.p2                             1.32139
x1.x219.cg_int1                   -3.23629e-08
x1.x219.rg_3                                 0
x1.gnd.t568                       -3.42412e-06
x1.gnd.t567                         0.00025608
x1.vdd.t1400                               1.8
x1.frontanalog_v0p0p1_5.rsfetsym_0.qn.t3         1.80001
x1.vdd.t1396                           1.79999
x1.x222.xsky130_fd_pr__res_xhigh_po_5p73.ra         1.47767
x1.vv14.t0                             1.42355
x1.vv15.t0                              1.4824
x1.x222.xsky130_fd_pr__res_xhigh_po_5p73.rbody_3               0
x1.x222.xsky130_fd_pr__res_xhigh_po_5p73.rend_3               0
x1.gnd.t171                        1.69849e-05
x1.vdd.t1248                           1.80001
x1.out3.t56                            1.79998
x1.vdd.t1247                           1.79972
x1.gnd.t1173                       -3.1287e-07
x1.gnd.t1172                       1.40312e-06
x1.vdd.t694                                1.8
x1.out0.t55                        0.000180001
x1.vdd.t693                            1.79997
x1.a_16719_n13117.t21                  1.21816
x1.a_16599_n13205.t6                  0.596107
x1.a_16541_n13117.t9                  0.137817
x1.gnd.t131                         4.9946e-05
x1.frontanalog_v0p0p1_7.x65.a.t2         1.30992
x1.clk.t4                          6.24319e-05
x1.frontanalog_v0p0p1_7.x63.a.t3         1.32578
x1.vdd.t201                            1.79999
x1.x229.xsky130_fd_pr__res_xhigh_po_5p73.ra         1.00704
x1.vv6.t11                             0.95295
x1.vv7.t11                             1.01177
x1.x229.xsky130_fd_pr__res_xhigh_po_5p73.rbody_3               0
x1.x229.xsky130_fd_pr__res_xhigh_po_5p73.rend_3               0
x1.gnd.t52                         2.24191e-05
x1.vdd.t1123                               1.8
x1.frontanalog_v0p0p1_6.x63.a.t2         1.32492
x1.clk.t5                          0.000109369
x1.vdd.t202                            1.79999
x1.gnd.t217                        2.34792e-05
x1.out2.t54                            1.79995
x1.vdd.t834                                1.8
x1.vdd.t833                                1.8
x1.out0.t54                        0.000158822
x1.vdd.t692                                1.8
x1.vdd.t691                            1.79999
x1.16to4_priorityencoder_v0p0p1_0.x5.x22.d     0.000191002
x1.vdd.t1104                           1.79999
x1.vdd.t106                                1.8
x1.frontanalog_v0p0p1_2.x65.a.t4         1.30338
x1.vdd.t105                                1.8
x1.frontanalog_v0p0p1_11.x65.x         1.80002
x1.vdd.t1351                               1.8
x1.vdd.t1350                               1.8
x1.gnd.t1190                        2.1633e-05
x1.gnd.t1189                      -1.11485e-06
x1.gnd.t166                        5.59058e-06
x1.gnd.t165                       -7.79374e-07
x1.out1.t58                            1.79999
x1.vdd.t1002                           1.80001
x1.vdd.t1001                           1.79993
x1.frontanalog_v0p0p1_9.x63.a.t2         1.32913
x1.clk.t6                          0.000110229
x1.vdd.t266                            1.79999
x1.vdd.t267                                1.8
x1.clk.t7                          4.00519e-05
x1.gnd.t305                        1.13379e-05
x1.gnd.t1418                       8.12043e-06
x1.frontanalog_v0p0p1_7.x65.a.t5         1.30983
x1.frontanalog_v0p0p1_12.rsfetsym_0.qn.t4         1.80002
x1.frontanalog_v0p0p1_12.rsfetsym_0.x1.y     0.000111278
x1.gnd.t1561                      -1.91634e-07
x1.gnd.t596                       -7.44803e-08
x1.gnd.t933                        2.90759e-07
x1.out2.t122                            1.7999
x1.gnd.t932                        3.96499e-06
x1.16to4_priorityencoder_v0p0p1_0.x5.x17.d     0.000196123
x1.gnd.t249                        2.21626e-05
x1.gnd.t248                       -5.66746e-06
x1.gnd.t1066                      -1.86768e-06
x1.out1.t121                           1.79989
x1.gnd.t1065                       5.76063e-05
x1.gnd.t1446                       2.17219e-05
x1.gnd.t1445                      -1.10867e-06
x1.frontanalog_v0p0p1_15.rsfetsym_0.x2.y     0.000118756
x1.gnd.t229                         2.7474e-05
x1.gnd.t228                       -2.40959e-06
x1.vdd.t540                                1.8
x1.vdd.t534                                1.8
x1.vdd.t872                                1.8
x1.vdd.t1070                               1.8
x1.i4.t3                           8.82128e-05
x1.vdd.t1064                           1.79999
x1.vdd.t268                                1.8
x1.clk.t8                          3.50788e-05
x1.gnd.t306                        1.12954e-05
x1.vdd.t1099                               1.8
x1.vdd.t1098                               1.8
x1.x255.xsky130_fd_pr__res_xhigh_po_5p73.ra        0.654078
x1.vl.t5                               0.60001
x1.vv1.t8                             0.658812
x1.x255.xsky130_fd_pr__res_xhigh_po_5p73.rbody_3               0
x1.x255.xsky130_fd_pr__res_xhigh_po_5p73.rend_3               0
x1.clk.t9                          9.56728e-05
x1.frontanalog_v0p0p1_11.x65.a.t0         1.31697
x1.vdd.t269                            1.79998
x1.out2.t53                            1.79992
x1.vdd.t832                                1.8
x1.vdd.t831                            1.79998
x1.vdd.t64                             1.80001
x1.vdd.t62                                 1.8
x1.vdd.t63                             1.79997
x1.gnd.t947                         5.9032e-06
x1.gnd.t582                        2.27636e-07
x1.out3.t116                           1.79985
x1.gnd.t1319                       1.96085e-07
x1.gnd.t1318                        6.1839e-06
x1.vv10.t16                            1.18825
x1.x262.p2                             1.32595
x1.x262.cg_int1                   -2.06248e-09
x1.x262.rg_3                                 0
x1.frontanalog_v0p0p1_15.x65.a.t1         1.36352
x1.frontanalog_v0p0p1_15.x63.a.t5         1.37154
x1.gnd.t123                        5.58788e-07
x1.vv4.t16                            0.835301
x1.gnd.t397                        5.43611e-05
x1.vdd.t830                                1.8
x1.out2.t52                            1.79992
x1.vdd.t829                                1.8
x1.x266.xsky130_fd_pr__res_xhigh_po_5p73.ra         1.12469
x1.vv8.t2                               1.0706
x1.vv9.t0                              1.12943
x1.x266.xsky130_fd_pr__res_xhigh_po_5p73.rbody_3               0
x1.x266.xsky130_fd_pr__res_xhigh_po_5p73.rend_3               0
x1.vdd.t1246                               1.8
x1.out3.t55                            1.79993
x1.vdd.t1245                           1.79986
x1.16to4_priorityencoder_v0p0p1_0.x3.x17.a     0.000219122
x1.gnd.t526                        2.21619e-05
x1.gnd.t525                        0.000231097
x1.out0.t117                        7.7187e-05
x1.gnd.t781                        1.59282e-05
x1.gnd.t780                        1.08312e-05
x1.gnd.t1317                      -7.80875e-07
x1.out3.t115                           1.79985
x1.gnd.t1316                       2.66285e-05
x1.gnd.t573                         1.6731e-05
x1.out3.t54                            1.79995
x1.vdd.t1244                           1.80001
x1.vdd.t1243                           1.79975
x1.16to4_priorityencoder_v0p0p1_0.x20.a     0.000220892
x1.gnd.t646                       -1.01607e-06
x1.gnd.t645                       -8.23336e-07
x1.vin.t4                             0.500053
x1.x274.p2                             1.27161
x1.x274.cg_int1                    5.13117e-09
x1.x274.rg_3                                 0
x1.gnd.t1106                       2.23238e-05
x1.16to4_priorityencoder_v0p0p1_0.x5.x21.b       0.0002218
x1.gnd.t1105                      -6.15353e-06
x1.vdd.t270                                1.8
x1.clk.t10                         3.37352e-05
x1.gnd.t307                        1.12433e-05
x1.vdd.t387                                1.8
x1.i12.t3                                  1.8
x1.vdd.t380                            1.79999
x1.clk.t11                         9.49608e-05
x1.frontanalog_v0p0p1_4.x65.a.t3         1.30627
x1.vdd.t271                            1.79998
x1.vdd.t1481                               1.8
x1.vdd.t1480                           1.79998
x1.gnd.t1104                      -1.88377e-06
x1.gnd.t1103                       2.53893e-05
x1.gnd.t931                       -8.73398e-07
x1.out2.t121                           1.79989
x1.gnd.t930                        2.76892e-05
x1.16to4_priorityencoder_v0p0p1_0.x3.x22.d       0.0001561
x1.vdd.t510                            1.79999
x1.frontanalog_v0p0p1_1.x65.a.t0         1.31103
x1.frontanalog_v0p0p1_1.x63.a.t4          1.3269
x1.gnd.t1367                       5.39264e-07
x1.out2.t120                           1.79989
x1.gnd.t929                       -9.32617e-07
x1.gnd.t928                        4.06644e-05
x1.vdd.t1069                               1.8
x1.gnd.t1080                      -1.87251e-06
x1.out1.t120                           1.79989
x1.gnd.t1079                       6.37375e-05
x1.x287.xsky130_fd_pr__res_xhigh_po_5p73.ra         1.47767
x1.vv14.t6                             1.42355
x1.vv15.t11                             1.4824
x1.x287.xsky130_fd_pr__res_xhigh_po_5p73.rbody_3               0
x1.x287.xsky130_fd_pr__res_xhigh_po_5p73.rend_3               0
x1.16to4_priorityencoder_v0p0p1_0.x3.x16.c      0.00720588
x1.i5.t8                               1.80034
x1.gnd.t961                         0.00075979
x1.gnd.t960                       -6.67522e-06
x1.out0.t53                        0.000218479
x1.vdd.t690                            1.80001
x1.vdd.t689                            1.79988
x1.out3.t53                            1.79991
x1.vdd.t1242                           1.79999
x1.vdd.t1241                           1.79986
x1.gnd.t671                        1.94103e-05
x1.gnd.t670                       -3.59314e-06
x1.vin.t5                             0.500054
x1.x292.p2                             1.31524
x1.x292.cg_int1                    3.10609e-10
x1.x292.rg_3                                 0
x1.out1.t119                            1.7999
x1.gnd.t1078                      -1.94471e-06
x1.gnd.t1077                       6.08086e-05
x1.frontanalog_v0p0p1_4.rsfetsym_0.x1.y     0.000114136
x1.vdd.t386                                1.8
x1.vdd.t382                                1.8
x1.vdd.t178                            1.80001
x1.16to4_priorityencoder_v0p0p1_0.x5.a1         1.80002
x1.vdd.t177                            1.79999
x1.gnd.t1522                       2.31921e-05
x1.vdd.t556                                1.8
x1.vdd.t555                                1.8
x1.vdd.t1503                               1.8
x1.gnd.t1                          2.83233e-07
x1.vdd.t1504                               1.8
x1.gnd.t2                          0.000118023
x1.vdd.t1058                               1.8
x1.vdd.t1057                           1.79998
x1.gnd.t927                       -6.88306e-07
x1.out2.t119                           1.79989
x1.gnd.t926                        1.89137e-05
x1.out2.t118                           1.79989
x1.gnd.t925                       -1.58629e-06
x1.gnd.t924                        5.34639e-05
x1.frontanalog_v0p0p1_14.x65.a.t1         1.33792
x1.clk.t12                         6.24123e-05
x1.frontanalog_v0p0p1_14.x63.a.t3         1.34933
x1.vdd.t272                            1.79999
x1.out2.t51                            1.80002
x1.vdd.t828                            1.80001
x1.vdd.t827                            1.79995
x1.vdd.t1479                               1.8
x1.vdd.t1478                           1.79998
x1.vdd.t92                                 1.8
x1.vdd.t91                                 1.8
x1.gnd.t625                        2.81136e-05
x1.gnd.t624                       -3.82324e-06
x1.vin.t6                             0.500053
x1.x308.p2                             1.27885
x1.x308.cg_int1                    1.33578e-09
x1.x308.rg_3                                 0
x1.gnd.t653                        2.29372e-05
x1.gnd.t1553                      -1.75531e-05
x1.gnd.t1552                       0.000295264
x1.out1.t118                           1.79991
x1.gnd.t1076                      -9.83568e-07
x1.gnd.t1075                       2.96606e-05
x1.vdd.t826                            1.80001
x1.out2.t50                            1.80002
x1.vdd.t825                            1.79989
x1.vdd.t1240                               1.8
x1.out3.t52                            1.79992
x1.vdd.t1239                           1.79997
x1.gnd.t629                        2.27467e-05
x1.16to4_priorityencoder_v0p0p1_0.x3.x21.b     0.000179851
x1.gnd.t628                        -6.1319e-07
x1.ptat_v0p0p0_mag_0.vout.t6          0.595165
x1.gnd.t349                         3.9649e-05
x1.vin.t7                             0.500048
x1.gnd.t1358                       7.42427e-06
x1.frontanalog_v0p0p1_14.x65.a.t4         1.33786
x1.out2.t117                           1.79989
x1.gnd.t923                       -1.46766e-06
x1.gnd.t922                        4.55547e-05
x1.vdd.t245                                1.8
x1.frontanalog_v0p0p1_5.x65.a.t4         1.30758
x1.vdd.t244                                1.8
x1.gnd.t55                         7.61664e-06
x1.frontanalog_v0p0p1_4.x63.a.t5         1.32309
x1.gnd.t54                        -5.88029e-07
x1.frontanalog_v0p0p1_14.x63.a.t0          1.3494
x1.frontanalog_v0p0p1_14.x65.a.t5         1.33783
x1.gnd.t1359                       6.22041e-07
x1.gnd.t227                         2.1164e-05
x1.gnd.t226                       -9.71639e-07
x1.vdd.t1000                           1.80001
x1.out1.t57                            1.79996
x1.vdd.t999                            1.79983
x1.vdd.t539                                1.8
x1.gnd.t1315                      -1.60084e-06
x1.out3.t114                           1.79985
x1.gnd.t1314                       6.02029e-05
x1.i1.t1                           2.52132e-05
x1.frontanalog_v0p0p1_14.rsfetsym_0.qn.t5         1.80002
x1.vdd.t388                                1.8
x1.vdd.t314                                1.8
x1.vdd.t581                                1.8
x1.vdd.t575                                1.8
x1.gnd.t779                        1.56165e-05
x1.out0.t116                       6.89685e-05
x1.gnd.t778                        1.27762e-05
x1.gnd.t511                       -1.87905e-05
x1.gnd.t510                        0.000127533
x1.vin.t8                             0.500046
x1.gnd.t394                        5.72244e-05
x1.vdd.t426                                1.8
x1.vdd.t425                            1.79994
x1.out3.t113                           1.79986
x1.gnd.t1313                       2.86613e-07
x1.gnd.t1312                       4.89076e-06
x1.16to4_priorityencoder_v0p0p1_0.x5.x16.c         1.80001
x1.gnd.t9                          3.63824e-05
x1.x334.xsky130_fd_pr__res_xhigh_po_5p73.ra        0.948214
x1.vv5.t7                             0.894124
x1.vv6.t6                              0.95295
x1.x334.xsky130_fd_pr__res_xhigh_po_5p73.rbody_3               0
x1.x334.xsky130_fd_pr__res_xhigh_po_5p73.rend_3               0
x1.vdd.t824                            1.80002
x1.out2.t49                            1.80002
x1.vdd.t823                            1.79984
x1.vdd.t1238                               1.8
x1.out3.t51                            1.79988
x1.vdd.t1237                           1.79992
x1.x337.xsky130_fd_pr__res_xhigh_po_5p73.ra        0.712945
x1.vv1.t14                            0.658812
x1.vv2.t14                            0.717684
x1.x337.xsky130_fd_pr__res_xhigh_po_5p73.rbody_3               0
x1.x337.xsky130_fd_pr__res_xhigh_po_5p73.rend_3               0
x1.gnd.t1498                      -1.53834e-05
x1.gnd.t1497                       6.43234e-05
x1.vv2.t16                            0.717685
x1.x339.p2                             1.34917
x1.x339.cg_int1                   -7.21164e-09
x1.x339.rg_3                                 0
x1.vin.t9                             0.500046
x1.gnd.t271                        2.76571e-05
x1.gnd.t270                       -3.72006e-06
x1.frontanalog_v0p0p1_11.rsfetsym_0.x2.y     0.000118457
x1.gnd.t1461                       2.09321e-05
x1.gnd.t1460                      -3.87785e-06
x1.gnd.t1138                       9.74204e-05
x1.gnd.t178                        1.53335e-05
x1.16to4_priorityencoder_v0p0p1_0.x5.x20.b     2.16083e-05
x1.frontanalog_v0p0p1_7.x63.a.t1         1.32589
x1.frontanalog_v0p0p1_7.x65.a.t6         1.30979
x1.gnd.t1419                       6.01814e-07
x1.x346.xsky130_fd_pr__res_xhigh_po_5p73.ra        0.654079
x1.vl.t7                               0.60001
x1.vv1.t15                            0.658812
x1.x346.xsky130_fd_pr__res_xhigh_po_5p73.rbody_3               0
x1.x346.xsky130_fd_pr__res_xhigh_po_5p73.rend_3               0
x1.x347.xsky130_fd_pr__res_xhigh_po_5p73.ra         1.24234
x1.vv10.t8                             1.18825
x1.vv11.t7                             1.24707
x1.x347.xsky130_fd_pr__res_xhigh_po_5p73.rbody_3               0
x1.x347.xsky130_fd_pr__res_xhigh_po_5p73.rend_3               0
x1.i0.t4                               1.80002
x1.gnd.t437                       -2.04853e-07
x1.gnd.t436                       -3.53628e-08
x1.out1.t117                           1.79989
x1.gnd.t1074                      -2.64684e-07
x1.gnd.t1073                       1.21938e-05
x1.i9.t5                           3.11494e-06
x1.i9.t0                           5.09486e-06
x1.frontanalog_v0p0p1_7.rsfetsym_0.qn.t5         1.80001
x1.vdd.t176                                1.8
x1.vdd.t175                                1.8
x1.frontanalog_v0p0p1_0.rsfetsym_0.qn.t3      8.4576e-06
x1.gnd.t269                        6.28423e-09
x1.gnd.t921                        -1.2918e-06
x1.out2.t116                           1.79989
x1.gnd.t920                        4.04804e-05
x1.vdd.t822                            1.80002
x1.out2.t48                            1.80002
x1.vdd.t821                            1.79986
x1.vdd.t688                            1.80001
x1.out0.t52                        0.000227349
x1.vdd.t687                            1.79987
x1.out1.t116                           1.79989
x1.gnd.t1072                      -1.81948e-06
x1.gnd.t1071                       6.84754e-05
x1.out3.t112                           1.79987
x1.gnd.t1311                      -1.15832e-06
x1.gnd.t1310                       4.29898e-05
x1.i1.t3                           2.51722e-05
x1.vdd.t1122                               1.8
x1.vdd.t1119                           1.79999
x1.x360.xsky130_fd_pr__res_xhigh_po_5p73.ra         1.12469
x1.vv8.t8                               1.0706
x1.vv9.t10                             1.12943
x1.x360.xsky130_fd_pr__res_xhigh_po_5p73.rbody_3               0
x1.x360.xsky130_fd_pr__res_xhigh_po_5p73.rend_3               0
x1.gnd.t509                       -1.91807e-05
x1.gnd.t508                        0.000115627
x1.vdd.t424                            1.80001
x1.vdd.t423                            1.79988
x1.gnd.t1064                      -1.71496e-07
x1.out1.t115                           1.79991
x1.gnd.t1063                       6.02337e-06
x1.frontanalog_v0p0p1_12.x63.x         1.80003
x1.gnd.t1510                       1.63911e-05
x1.gnd.t1506                        5.3803e-05
x1.i4.t4                           8.71777e-05
x1.gnd.t1144                      -1.18269e-08
x1.i8.t1                           4.37652e-06
x1.gnd.t431                       -2.03123e-07
x1.gnd.t430                       -3.33993e-08
x1.gnd.t777                        1.77586e-05
x1.out0.t115                       7.57166e-05
x1.gnd.t776                        3.26659e-05
x1.gnd.t1417                        1.1541e-05
x1.gnd.t1416                        1.0006e-06
x1.gnd.t1551                       -1.5975e-05
x1.gnd.t1550                       6.71811e-06
x1.out0.t114                       8.68975e-05
x1.gnd.t775                        1.79329e-05
x1.gnd.t774                        3.08134e-05
x1.vdd.t273                                1.8
x1.clk.t13                         3.99949e-05
x1.gnd.t308                        1.14071e-05
x1.gnd.t1070                      -1.40341e-06
x1.out1.t114                           1.79989
x1.gnd.t1069                       3.74576e-05
x1.ptat_v0p0p0_mag_0.vout.t7          0.595165
x1.gnd.t380                        4.35687e-05
x1.i9.t2                           5.06477e-06
x1.vdd.t871                                1.8
x1.vdd.t868                            1.79999
x1.out1.t56                            1.80002
x1.vdd.t998                            1.80001
x1.vdd.t997                            1.79987
x1.vdd.t100                                1.8
x1.vdd.t93                                 1.8
x1.vdd.t396                                1.8
x1.vdd.t1290                           1.79992
x1.frontanalog_v0p0p1_1.x63.a.t5         1.32694
x1.frontanalog_v0p0p1_1.x65.a.t1         1.31112
x1.vdd.t454                            1.79999
x1.out2.t47                            1.80001
x1.vdd.t820                            1.80002
x1.vdd.t819                            1.79986
x1.frontanalog_v0p0p1_6.rsfetsym_0.x1.y     0.000113991
x1.gnd.t1352                       1.70179e-05
x1.gnd.t1348                       5.22759e-05
x1.frontanalog_v0p0p1_13.rsfetsym_0.x2.y     0.000118071
x1.gnd.t119                        2.74542e-05
x1.gnd.t118                       -2.38722e-06
x1.16to4_priorityencoder_v0p0p1_0.x5.x14.a         1.80005
x1.vdd.t146                            1.80001
x1.vdd.t145                            1.79994
x1.vdd.t996                            1.80001
x1.out1.t55                            1.80002
x1.vdd.t995                            1.79981
x1.16to4_priorityencoder_v0p0p1_0.x34.a         1.80012
x1.vdd.t716                            1.80001
x1.vdd.t715                            1.79999
x1.frontanalog_v0p0p1_14.rsfetsym_0.qn.t0         1.80001
x1.i1.t5                           3.16199e-05
x1.vdd.t315                                1.8
x1.gnd.t1390                        4.6479e-06
x1.gnd.t1354                       -2.8889e-08
x1.i4.t6                            8.8184e-05
x1.gnd.t1353                       3.13819e-07
x1.gnd.t458                       -4.20104e-08
x1.frontanalog_v0p0p1_9.rsfetsym_0.qn.t6     2.28368e-05
x1.gnd.t457                        1.39364e-06
x1.gnd.t1309                      -9.12955e-07
x1.out3.t111                           1.79985
x1.gnd.t1308                       3.57101e-05
x1.16to4_priorityencoder_v0p0p1_0.x5.x9.y     0.000222385
x1.vdd.t1505                           1.79999
x1.gnd.t4                          2.78253e-05
x1.gnd.t3                         -4.97239e-07
x1.i1.t6                           2.30858e-05
x1.x392.xsky130_fd_pr__res_xhigh_po_5p73.ra         1.18352
x1.vv9.t11                             1.12943
x1.vv10.t12                            1.18825
x1.x392.xsky130_fd_pr__res_xhigh_po_5p73.rbody_3               0
x1.x392.xsky130_fd_pr__res_xhigh_po_5p73.rend_3               0
x1.a_16719_n13117.t20                  1.21817
x1.a_16599_n13205.t7                  0.596108
x1.a_16541_n13117.t8                  0.137849
x1.gnd.t132                        3.50687e-05
x1.vdd.t686                            1.80001
x1.out0.t51                        0.000218884
x1.vdd.t685                            1.79988
x1.vdd.t366                                1.8
x1.vdd.t365                            1.79999
x1.vdd.t274                                1.8
x1.clk.t14                          3.9597e-05
x1.gnd.t309                        1.09768e-05
x1.out3.t110                           1.79985
x1.gnd.t1307                      -6.32576e-07
x1.gnd.t1306                       2.30065e-05
x1.x398.xsky130_fd_pr__res_xhigh_po_5p73.ra        0.771761
x1.vv2.t10                            0.717684
x1.vv3.t9                             0.776495
x1.x398.xsky130_fd_pr__res_xhigh_po_5p73.rbody_3               0
x1.x398.xsky130_fd_pr__res_xhigh_po_5p73.rend_3               0
x1.out0.t113                        0.00010251
x1.gnd.t773                        2.15172e-05
x1.gnd.t772                        1.11572e-05
x1.out2.t115                            1.7999
x1.gnd.t919                       -9.51141e-07
x1.gnd.t918                        2.83869e-05
x1.x401.xsky130_fd_pr__res_xhigh_po_5p73.ra         1.41881
x1.vv13.t14                             1.3647
x1.vv14.t11                            1.42355
x1.x401.xsky130_fd_pr__res_xhigh_po_5p73.rbody_3               0
x1.x401.xsky130_fd_pr__res_xhigh_po_5p73.rend_3               0
x1.x402.xsky130_fd_pr__res_xhigh_po_5p73.ra         1.35996
x1.vv12.t7                             1.30588
x1.vv13.t4                              1.3647
x1.x402.xsky130_fd_pr__res_xhigh_po_5p73.rbody_3               0
x1.x402.xsky130_fd_pr__res_xhigh_po_5p73.rend_3               0
x1.16to4_priorityencoder_v0p0p1_0.x35.a     6.73923e-05
x1.gnd.t86                        -4.70662e-07
x1.gnd.t85                         2.73866e-06
x1.vdd.t1236                           1.80001
x1.out3.t50                            1.79995
x1.vdd.t1235                           1.79972
x1.out0.t50                         0.00020863
x1.vdd.t684                            1.80001
x1.vdd.t683                            1.79984
x1.gnd.t1496                      -1.92661e-05
x1.gnd.t1495                       0.000153916
x1.out2.t46                            1.80001
x1.vdd.t818                            1.80002
x1.vdd.t817                            1.79977
x1.vdd.t451                                1.8
x1.vdd.t444                                1.8
x1.frontanalog_v0p0p1_14.x65.x         1.80002
x1.vdd.t724                                1.8
x1.vdd.t719                                1.8
x1.gnd.t1305                      -7.54791e-07
x1.out3.t109                           1.79987
x1.gnd.t1304                        3.2932e-05
x1.gnd.t1549                       -1.7597e-05
x1.gnd.t1548                       0.000260285
x1.frontanalog_v0p0p1_5.rsfetsym_0.x2.y     0.000121445
x1.gnd.t1471                       2.82023e-05
x1.gnd.t1470                      -2.85186e-06
x1.vdd.t345                                1.8
x1.frontanalog_v0p0p1_13.x65.a.t4         1.31985
x1.vdd.t344                                1.8
x1.gnd.t1201                       2.30218e-05
x1.gnd.t1196                       5.38722e-05
x1.vdd.t275                                1.8
x1.clk.t15                          3.4501e-05
x1.gnd.t310                        1.12181e-05
x1.vdd.t210                                1.8
x1.vdd.t209                            1.79999
x1.vdd.t580                                1.8
x1.out1.t54                            1.80002
x1.vdd.t994                            1.80001
x1.vdd.t993                            1.79988
x1.vdd.t992                            1.80002
x1.out1.t53                            1.80002
x1.vdd.t991                            1.79982
x1.frontanalog_v0p0p1_7.rsfetsym_0.qn.t0         1.80001
x1.i9.t6                           8.74071e-06
x1.vdd.t263                                1.8
x1.gnd.t583                         6.0251e-06
x1.gnd.t955                        6.89638e-06
x1.frontanalog_v0p0p1_15.x63.a.t6         1.37153
x1.gnd.t944                       -5.90104e-07
x1.x423.xsky130_fd_pr__res_xhigh_po_5p73.ra         1.24234
x1.vv10.t0                             1.18825
x1.vv11.t0                             1.24707
x1.x423.xsky130_fd_pr__res_xhigh_po_5p73.rbody_3               0
x1.x423.xsky130_fd_pr__res_xhigh_po_5p73.rend_3               0
x1.out3.t108                           1.79985
x1.gnd.t1303                      -1.36065e-06
x1.gnd.t1302                       5.20975e-05
x1.vdd.t295                                1.8
x1.i1.t7                           2.62256e-05
x1.vdd.t78                                 1.8
x1.x426.xsky130_fd_pr__res_xhigh_po_5p73.ra         1.47767
x1.vv14.t13                            1.42355
x1.vv15.t14                             1.4824
x1.x426.xsky130_fd_pr__res_xhigh_po_5p73.rbody_3               0
x1.x426.xsky130_fd_pr__res_xhigh_po_5p73.rend_3               0
x1.gnd.t1171                      -1.29595e-06
x1.gnd.t1170                       4.86516e-05
x1.out2.t45                            1.79999
x1.vdd.t816                            1.80001
x1.vdd.t815                            1.79989
x1.vdd.t1327                               1.8
x1.vdd.t1322                               1.8
x1.out0.t49                        0.000193733
x1.vdd.t682                                1.8
x1.vdd.t681                            1.79998
x1.gnd.t1068                      -4.89012e-07
x1.out1.t113                            1.7999
x1.gnd.t1067                       2.89094e-05
x1.gnd.t954                        2.34567e-05
x1.gnd.t949                          5.399e-05
x1.vdd.t814                            1.80001
x1.out2.t44                            1.79999
x1.vdd.t813                            1.79985
x1.gnd.t1494                      -1.77147e-05
x1.gnd.t1493                       9.61141e-05
x1.out0.t112                       6.16276e-05
x1.gnd.t771                        6.48091e-06
x1.gnd.t770                        2.76251e-06
x1.vdd.t1432                           1.80001
x1.vdd.t1431                           1.79986
x1.gnd.t1368                       7.89841e-06
x1.frontanalog_v0p0p1_1.x63.a.t6         1.32689
x1.gnd.t1093                      -5.76677e-07
x1.frontanalog_v0p0p1_11.rsfetsym_0.qn.t4         1.80003
x1.vdd.t1389                               1.8
x1.vdd.t1385                           1.79999
x1.vdd.t164                                1.8
x1.i6.t6                                1.8001
x1.a_16719_n13117.t19                  1.21816
x1.a_16599_n13205.t8                  0.596107
x1.a_16541_n13117.t7                  0.137854
x1.gnd.t133                        1.83461e-05
x1.frontanalog_v0p0p1_2.rsfetsym_0.x2.y     0.000119338
x1.vdd.t554                                1.8
x1.vdd.t547                                1.8
x1.vdd.t1506                               1.8
x1.out0.t111                       6.75108e-05
x1.gnd.t769                        1.31737e-05
x1.gnd.t768                        3.71836e-05
x1.16to4_priorityencoder_v0p0p1_0.x7.a             1.8
x1.vdd.t158                                1.8
x1.vdd.t157                            1.79998
x1.vdd.t1035                               1.8
x1.vdd.t1030                               1.8
x1.gnd.t1301                      -1.65716e-07
x1.out3.t107                           1.79986
x1.gnd.t1300                       1.91004e-05
x1.gnd.t767                        2.84326e-05
x1.out0.t110                       0.000121273
x1.gnd.t766                        -8.4159e-06
x1.gnd.t507                         -1.375e-05
x1.gnd.t506                         1.1677e-06
x1.vdd.t1097                               1.8
x1.vdd.t1096                           1.79988
x1.gnd.t409                        2.21813e-05
x1.i13.t8                          1.18343e-06
x1.gnd.t362                        8.11542e-05
x1.vin.t10                            0.500054
x1.x451.p2                             1.27438
x1.x451.cg_int1                   -2.01903e-10
x1.x451.rg_3                                 0
x1.frontanalog_v0p0p1_15.x63.a.t2          1.3716
x1.frontanalog_v0p0p1_15.x65.a.t5         1.36353
x1.vdd.t855                            1.79994
x1.vdd.t467                            1.79999
x1.vdd.t231                                1.8
x1.frontanalog_v0p0p1_0.rsfetsym_0.qn.t2     9.29966e-06
x1.vdd.t224                            1.79999
x1.16to4_priorityencoder_v0p0p1_0.x3.x17.d     0.000118479
x1.vdd.t1126                               1.8
x1.vdd.t1125                           1.79999
x1.vdd.t812                                1.8
x1.out2.t43                            1.79997
x1.vdd.t811                            1.79999
x1.vdd.t1477                               1.8
x1.vdd.t1476                               1.8
x1.ptat_v0p0p0_mag_0.vout.t8          0.595165
x1.gnd.t381                        4.32668e-05
x1.frontanalog_v0p0p1_14.x63.a.t2          1.3494
x1.clk.t16                         0.000109567
x1.vdd.t276                            1.79999
x1.out1.t52                            1.79999
x1.vdd.t990                            1.80001
x1.vdd.t989                            1.79992
x1.out0.t48                        0.000233183
x1.vdd.t680                                1.8
x1.vdd.t679                            1.79996
x1.gnd.t765                        1.36686e-05
x1.out0.t109                       6.39862e-05
x1.gnd.t764                        1.29161e-05
x1.vdd.t1430                           1.80001
x1.vdd.t1429                           1.79989
x1.gnd.t117                        2.11402e-05
x1.gnd.t116                       -9.69865e-07
x1.16to4_priorityencoder_v0p0p1_0.x3.x20.b    -6.72135e-05
x1.i6.t7                                1.8001
x1.gnd.t189                       -6.45612e-06
x1.gnd.t188                       -1.07654e-06
x1.frontanalog_v0p0p1_4.x65.a.t2         1.30658
x1.clk.t17                         6.17618e-05
x1.frontanalog_v0p0p1_4.x63.a.t3           1.323
x1.vdd.t277                            1.79999
x1.frontanalog_v0p0p1_12.rsfetsym_0.qn.t2         1.80002
x1.gnd.t604                        -4.4487e-08
x1.out0.t47                        0.000226875
x1.vdd.t678                            1.80001
x1.vdd.t677                            1.79982
x1.x468.xsky130_fd_pr__res_xhigh_po_5p73.ra          1.5364
x1.vv15.t2                              1.4824
x1.vv16.t0                             1.54112
x1.x468.xsky130_fd_pr__res_xhigh_po_5p73.rbody_3               0
x1.x468.xsky130_fd_pr__res_xhigh_po_5p73.rend_3               0
x1.vdd.t79                                 1.8
x1.gnd.t1299                      -1.12904e-06
x1.out3.t106                           1.79986
x1.gnd.t1298                       3.62667e-05
x1.x471.xsky130_fd_pr__res_xhigh_po_5p73.ra         1.41881
x1.vv13.t12                             1.3647
x1.vv14.t10                            1.42355
x1.x471.xsky130_fd_pr__res_xhigh_po_5p73.rbody_3               0
x1.x471.xsky130_fd_pr__res_xhigh_po_5p73.rend_3               0
x1.frontanalog_v0p0p1_1.x63.a.t0           1.327
x1.frontanalog_v0p0p1_1.x65.a.t5         1.31102
x1.vdd.t1015                            1.7999
x1.vdd.t464                            1.79998
x1.vdd.t676                                1.8
x1.out0.t46                        0.000180694
x1.vdd.t675                            1.79996
x1.out1.t112                           1.79991
x1.gnd.t1062                        2.3958e-07
x1.gnd.t1061                       8.20864e-08
x1.out3.t105                           1.79987
x1.gnd.t1297                       5.61088e-07
x1.gnd.t1296                       3.42448e-06
x1.vdd.t1355                               1.8
x1.vdd.t1354                               1.8
x1.ptat_v0p0p0_mag_0.vout.t9          0.595164
x1.gnd.t382                        4.71383e-05
x1.frontanalog_v0p0p1_7.x63.a.t2         1.32589
x1.clk.t18                         0.000108764
x1.vdd.t278                            1.79999
x1.vdd.t422                                1.8
x1.vdd.t421                            1.79997
x1.gnd.t580                        8.09808e-06
x1.frontanalog_v0p0p1_4.x65.a.t5         1.30649
x1.frontanalog_v0p0p1_10.rsfetsym_0.qn.t4       0.0033166
x1.gnd.t1206                      -4.08717e-08
x1.gnd.t342                        6.05735e-08
x1.gnd.t1362                      -2.95035e-06
x1.gnd.t1361                        8.0066e-05
x1.gnd.t579                        7.99929e-06
x1.frontanalog_v0p0p1_2.x63.a.t6         1.32052
x1.gnd.t107                       -5.51442e-07
x1.vdd.t230                                1.8
x1.vdd.t226                                1.8
x1.out3.t49                            1.79999
x1.vdd.t1234                               1.8
x1.vdd.t1233                           1.79996
x1.gnd.t1469                       2.17381e-05
x1.gnd.t1468                       -1.1531e-06
x1.gnd.t1200                       1.66212e-05
x1.vdd.t988                            1.80001
x1.out1.t51                            1.79997
x1.vdd.t987                            1.79998
x1.vdd.t1501                               1.8
x1.frontanalog_v0p0p1_12.x63.a.t4         1.33855
x1.vdd.t1500                               1.8
x1.i12.t0                                  1.8
x1.frontanalog_v0p0p1_4.rsfetsym_0.qn.t5     1.48294e-05
x1.vdd.t20                                 1.8
x1.vdd.t19                                 1.8
x1.gnd.t1169                      -3.65491e-06
x1.gnd.t1168                       0.000121592
x1.vdd.t385                                1.8
x1.vdd.t674                            1.80001
x1.out0.t45                        0.000231656
x1.vdd.t673                            1.79988
x1.vdd.t279                                1.8
x1.clk.t19                         3.46023e-05
x1.gnd.t297                        1.13855e-05
x1.vdd.t1034                               1.8
x1.i7.t3                           7.18759e-05
x1.vdd.t1028                           1.79999
x1.vdd.t1493                           1.79993
x1.frontanalog_v0p0p1_11.x63.a.t4         1.33206
x1.frontanalog_v0p0p1_11.x65.a.t3         1.31725
x1.vdd.t461                            1.79999
x1.clk.t20                         9.63853e-05
x1.frontanalog_v0p0p1_8.x65.a.t1         1.31211
x1.vdd.t207                            1.79998
x1.gnd.t1547                       -1.6159e-05
x1.gnd.t1546                       0.000354712
x1.i14.t3                                  1.8
x1.gnd.t187                       -2.05646e-07
x1.gnd.t186                       -3.53622e-08
x1.out1.t111                           1.79992
x1.gnd.t1060                       4.38181e-08
x1.gnd.t1059                       4.08995e-06
x1.vdd.t38                                 1.8
x1.i15.t5                          4.23287e-06
x1.vdd.t37                             1.79997
x1.vv13.t16                             1.3647
x1.x502.p2                             1.32316
x1.x502.cg_int1                   -1.04991e-09
x1.x502.rg_3                                 0
x1.a_16719_n13117.t18                  1.21817
x1.a_16599_n13205.t9                  0.596108
x1.a_16541_n13117.t6                  0.137835
x1.gnd.t134                         4.9258e-05
x1.frontanalog_v0p0p1_13.x65.a.t1         1.31984
x1.frontanalog_v0p0p1_13.x63.a.t5         1.33426
x1.gnd.t1342                       5.36267e-07
x1.out2.t42                            1.79992
x1.vdd.t810                                1.8
x1.vdd.t809                            1.79997
x1.gnd.t1058                      -9.71865e-08
x1.out1.t110                           1.79992
x1.gnd.t1057                        2.9611e-06
x1.out3.t48                                1.8
x1.vdd.t1232                               1.8
x1.vdd.t1231                           1.79994
x1.frontanalog_v0p0p1_3.rsfetsym_0.qn.t1         1.80001
x1.frontanalog_v0p0p1_3.rsfetsym_0.x1.y      0.00011389
x1.gnd.t262                       -2.03295e-07
x1.vdd.t986                                1.8
x1.out1.t50                            1.79997
x1.vdd.t985                            1.79994
x1.gnd.t953                        1.69411e-05
x1.vdd.t1451                               1.8
x1.i15.t3                          2.61314e-06
x1.vdd.t1444                           1.79999
x1.vdd.t1106                               1.8
x1.frontanalog_v0p0p1_6.x63.a.t4         1.32492
x1.vdd.t1105                               1.8
x1.vdd.t420                                1.8
x1.vdd.t419                                1.8
x1.vv3.t16                            0.776493
x1.gnd.t155                        5.37413e-05
x1.x515.xsky130_fd_pr__res_xhigh_po_5p73.ra        0.889389
x1.vv4.t3                             0.835304
x1.vv5.t4                             0.894124
x1.x515.xsky130_fd_pr__res_xhigh_po_5p73.rbody_3               0
x1.x515.xsky130_fd_pr__res_xhigh_po_5p73.rend_3               0
x1.vdd.t1475                               1.8
x1.vdd.t1474                               1.8
x1.x517.xsky130_fd_pr__res_xhigh_po_5p73.ra         1.30115
x1.vv11.t2                             1.24707
x1.vv12.t3                             1.30588
x1.x517.xsky130_fd_pr__res_xhigh_po_5p73.rbody_3               0
x1.x517.xsky130_fd_pr__res_xhigh_po_5p73.rend_3               0
x1.gnd.t763                        2.19638e-05
x1.out0.t108                       8.84601e-05
x1.gnd.t762                        3.79829e-06
x1.vdd.t1095                           1.80001
x1.vdd.t1094                           1.79974
x1.out3.t104                           1.79987
x1.gnd.t1295                      -2.44803e-07
x1.gnd.t1294                         1.307e-05
x1.vdd.t1490                               1.8
x1.clk.t21                         7.26517e-05
x1.gnd.t294                       -7.20535e-08
x1.gnd.t293                        7.59037e-08
x1.gnd.t1167                      -2.78906e-06
x1.gnd.t1166                       7.42075e-05
x1.frontanalog_v0p0p1_5.x65.a.t1         1.30757
x1.frontanalog_v0p0p1_5.x63.a.t5           1.324
x1.gnd.t1212                       5.25063e-07
x1.gnd.t1545                      -1.75256e-05
x1.gnd.t1544                       6.65637e-05
x1.gnd.t917                        -8.1923e-07
x1.out2.t114                           1.79989
x1.gnd.t916                        2.44598e-05
x1.vdd.t1033                               1.8
x1.out3.t47                            1.79996
x1.vdd.t1230                               1.8
x1.vdd.t1229                           1.79992
x1.vdd.t984                                1.8
x1.out1.t49                            1.79995
x1.vdd.t983                            1.79998
x1.gnd.t208                        1.16951e-07
x1.frontanalog_v0p0p1_7.rsfetsym_0.qn.t6         1.80001
x1.gnd.t207                        7.46308e-07
x1.vv11.t16                            1.24707
x1.gnd.t374                         5.3745e-05
x1.gnd.t505                       -1.61751e-05
x1.gnd.t504                        8.39847e-05
x1.vdd.t1228                           1.80001
x1.out3.t46                                1.8
x1.vdd.t1227                           1.79979
x1.out1.t48                            1.79993
x1.vdd.t982                                1.8
x1.vdd.t981                                1.8
x1.vdd.t672                                1.8
x1.out0.t44                        0.000207496
x1.vdd.t671                            1.79997
x1.clk.t22                         6.56443e-05
x1.gnd.t296                       -6.86406e-08
x1.gnd.t295                        8.01638e-08
x1.gnd.t1459                       2.75133e-05
x1.gnd.t1458                      -3.43928e-06
x1.vin.t11                            0.500054
x1.x538.p2                             1.34724
x1.x538.cg_int1                   -2.84308e-09
x1.x538.rg_3                                 0
x1.vdd.t188                                1.8
x1.vdd.t181                                1.8
x1.vdd.t712                            1.80001
x1.i7.t5                           7.38099e-05
x1.vdd.t711                            1.79995
x1.vdd.t1093                           1.80001
x1.vdd.t1092                           1.79983
x1.vdd.t500                            1.79992
x1.frontanalog_v0p0p1_2.x63.a.t7         1.32057
x1.frontanalog_v0p0p1_2.x65.a.t0         1.30347
x1.vdd.t285                            1.79999
x1.vdd.t518                                1.8
x1.frontanalog_v0p0p1_12.rsfetsym_0.qn.t1         1.80002
x1.vdd.t513                            1.79999
x1.gnd.t289                        2.20312e-05
x1.gnd.t288                        8.03523e-07
x1.out1.t109                           1.79989
x1.gnd.t1056                        -3.058e-07
x1.gnd.t1055                       1.72543e-05
x1.vdd.t1428                               1.8
[...]
 Reference value :  7.41536e-07
 Reference value :  7.41636e-07
 Reference value :  7.41736e-07
 Reference value :  7.41836e-07
 Reference value :  7.41936e-07
 Reference value :  7.42036e-07
 Reference value :  7.42136e-07
 Reference value :  7.42236e-07
 Reference value :  7.42336e-07
 Reference value :  7.42436e-07
 Reference value :  7.42536e-07
 Reference value :  7.42636e-07
 Reference value :  7.42736e-07
 Reference value :  7.42836e-07
 Reference value :  7.42936e-07
 Reference value :  7.43036e-07
 Reference value :  7.43136e-07
 Reference value :  7.43236e-07
 Reference value :  7.43336e-07
 Reference value :  7.43436e-07
 Reference value :  7.43536e-07
 Reference value :  7.43636e-07
 Reference value :  7.43736e-07
 Reference value :  7.43836e-07
 Reference value :  7.43936e-07
 Reference value :  7.44036e-07
 Reference value :  7.44136e-07
 Reference value :  7.44236e-07
 Reference value :  7.44336e-07
 Reference value :  7.44436e-07
 Reference value :  7.44536e-07
 Reference value :  7.44636e-07
 Reference value :  7.44736e-07
 Reference value :  7.44836e-07
 Reference value :  7.44936e-07
 Reference value :  7.45036e-07
 Reference value :  7.45136e-07
 Reference value :  7.45236e-07
 Reference value :  7.45336e-07
 Reference value :  7.45436e-07
 Reference value :  7.45536e-07
 Reference value :  7.45636e-07
 Reference value :  7.45736e-07
 Reference value :  7.45836e-07
 Reference value :  7.45936e-07
 Reference value :  7.46036e-07
 Reference value :  7.46136e-07
 Reference value :  7.46236e-07
 Reference value :  7.46336e-07
 Reference value :  7.46436e-07
 Reference value :  7.46536e-07
 Reference value :  7.46636e-07
 Reference value :  7.46736e-07
 Reference value :  7.46836e-07
 Reference value :  7.46936e-07
 Reference value :  7.47036e-07
 Reference value :  7.47136e-07
 Reference value :  7.47236e-07
 Reference value :  7.47336e-07
 Reference value :  7.47436e-07
 Reference value :  7.47536e-07
 Reference value :  7.47636e-07
 Reference value :  7.47736e-07
 Reference value :  7.47836e-07
 Reference value :  7.47936e-07
 Reference value :  7.48036e-07
 Reference value :  7.48136e-07
 Reference value :  7.48236e-07
 Reference value :  7.48336e-07
 Reference value :  7.48436e-07
 Reference value :  7.48536e-07
 Reference value :  7.48636e-07
 Reference value :  7.48736e-07
 Reference value :  7.48836e-07
 Reference value :  7.48936e-07
 Reference value :  7.49000e-07
 Reference value :  7.49004e-07
 Reference value :  7.49028e-07
 Reference value :  7.49109e-07
 Reference value :  7.49209e-07
 Reference value :  7.49309e-07
 Reference value :  7.49409e-07
 Reference value :  7.49509e-07
 Reference value :  7.49609e-07
 Reference value :  7.49709e-07
 Reference value :  7.49809e-07
 Reference value :  7.49859e-07
 Reference value :  7.49909e-07
 Reference value :  7.49959e-07
 Reference value :  7.50000e-07
 Reference value :  7.50003e-07
 Reference value :  7.50018e-07
 Reference value :  7.50079e-07
 Reference value :  7.50179e-07
 Reference value :  7.50279e-07
 Reference value :  7.50329e-07
 Reference value :  7.50379e-07
 Reference value :  7.50479e-07
 Reference value :  7.50579e-07
 Reference value :  7.50679e-07
 Reference value :  7.50779e-07
 Reference value :  7.50879e-07
 Reference value :  7.50979e-07
 Reference value :  7.51079e-07
 Reference value :  7.51179e-07
 Reference value :  7.51279e-07
 Reference value :  7.51379e-07
 Reference value :  7.51479e-07
 Reference value :  7.51579e-07
 Reference value :  7.51679e-07
 Reference value :  7.51779e-07
 Reference value :  7.51879e-07
 Reference value :  7.51979e-07
 Reference value :  7.52079e-07
 Reference value :  7.52179e-07
 Reference value :  7.52279e-07
 Reference value :  7.52379e-07
 Reference value :  7.52479e-07
 Reference value :  7.52579e-07
 Reference value :  7.52679e-07
 Reference value :  7.52779e-07
 Reference value :  7.52879e-07
 Reference value :  7.52979e-07
 Reference value :  7.53079e-07
 Reference value :  7.53179e-07
 Reference value :  7.53279e-07
 Reference value :  7.53379e-07
 Reference value :  7.53479e-07
 Reference value :  7.53579e-07
 Reference value :  7.53679e-07
 Reference value :  7.53779e-07
 Reference value :  7.53879e-07
 Reference value :  7.53979e-07
 Reference value :  7.54079e-07
 Reference value :  7.54179e-07
 Reference value :  7.54279e-07
 Reference value :  7.54379e-07
 Reference value :  7.54479e-07
 Reference value :  7.54579e-07
 Reference value :  7.54679e-07
 Reference value :  7.54779e-07
 Reference value :  7.54879e-07
 Reference value :  7.54979e-07
 Reference value :  7.55079e-07
 Reference value :  7.55179e-07
 Reference value :  7.55279e-07
 Reference value :  7.55379e-07
 Reference value :  7.55479e-07
 Reference value :  7.55579e-07
 Reference value :  7.55679e-07
 Reference value :  7.55779e-07
 Reference value :  7.55879e-07
 Reference value :  7.55979e-07
 Reference value :  7.56079e-07
 Reference value :  7.56179e-07
 Reference value :  7.56279e-07
 Reference value :  7.56379e-07
 Reference value :  7.56479e-07
 Reference value :  7.56579e-07
 Reference value :  7.56679e-07
 Reference value :  7.56779e-07
 Reference value :  7.56879e-07
 Reference value :  7.56979e-07
 Reference value :  7.57079e-07
 Reference value :  7.57179e-07
 Reference value :  7.57279e-07
 Reference value :  7.57379e-07
 Reference value :  7.57479e-07
 Reference value :  7.57579e-07
 Reference value :  7.57679e-07
 Reference value :  7.57779e-07
 Reference value :  7.57879e-07
 Reference value :  7.57979e-07
 Reference value :  7.58079e-07
 Reference value :  7.58179e-07
 Reference value :  7.58279e-07
 Reference value :  7.58379e-07
 Reference value :  7.58479e-07
 Reference value :  7.58579e-07
 Reference value :  7.58679e-07
 Reference value :  7.58779e-07
 Reference value :  7.58879e-07
 Reference value :  7.58979e-07
 Reference value :  7.59079e-07
 Reference value :  7.59179e-07
 Reference value :  7.59279e-07
 Reference value :  7.59379e-07
 Reference value :  7.59479e-07
 Reference value :  7.59579e-07
 Reference value :  7.59679e-07
 Reference value :  7.59779e-07
 Reference value :  7.59879e-07
 Reference value :  7.59979e-07
 Reference value :  7.60079e-07
 Reference value :  7.60179e-07
 Reference value :  7.60279e-07
 Reference value :  7.60379e-07
 Reference value :  7.60479e-07
 Reference value :  7.60579e-07
 Reference value :  7.60679e-07
 Reference value :  7.60779e-07
 Reference value :  7.60879e-07
 Reference value :  7.60979e-07
 Reference value :  7.61079e-07
 Reference value :  7.61179e-07
 Reference value :  7.61279e-07
 Reference value :  7.61379e-07
 Reference value :  7.61479e-07
 Reference value :  7.61579e-07
 Reference value :  7.61679e-07
 Reference value :  7.61779e-07
 Reference value :  7.61879e-07
 Reference value :  7.61979e-07
 Reference value :  7.62079e-07
 Reference value :  7.62179e-07
 Reference value :  7.62279e-07
 Reference value :  7.62379e-07
 Reference value :  7.62479e-07
 Reference value :  7.62579e-07
 Reference value :  7.62679e-07
 Reference value :  7.62779e-07
 Reference value :  7.62879e-07
 Reference value :  7.62979e-07
 Reference value :  7.63079e-07
 Reference value :  7.63179e-07
 Reference value :  7.63279e-07
 Reference value :  7.63379e-07
 Reference value :  7.63479e-07
 Reference value :  7.63579e-07
 Reference value :  7.63679e-07
 Reference value :  7.63779e-07
 Reference value :  7.63879e-07
 Reference value :  7.63979e-07
 Reference value :  7.64079e-07
 Reference value :  7.64179e-07
 Reference value :  7.64279e-07
 Reference value :  7.64379e-07
 Reference value :  7.64479e-07
 Reference value :  7.64579e-07
 Reference value :  7.64679e-07
 Reference value :  7.64779e-07
 Reference value :  7.64879e-07
 Reference value :  7.64979e-07
 Reference value :  7.65079e-07
 Reference value :  7.65179e-07
 Reference value :  7.65279e-07
 Reference value :  7.65379e-07
 Reference value :  7.65479e-07
 Reference value :  7.65579e-07
 Reference value :  7.65679e-07
 Reference value :  7.65779e-07
 Reference value :  7.65879e-07
 Reference value :  7.65979e-07
 Reference value :  7.66079e-07
 Reference value :  7.66179e-07
 Reference value :  7.66279e-07
 Reference value :  7.66379e-07
 Reference value :  7.66479e-07
 Reference value :  7.66579e-07
 Reference value :  7.66679e-07
 Reference value :  7.66779e-07
 Reference value :  7.66879e-07
 Reference value :  7.66979e-07
 Reference value :  7.67079e-07
 Reference value :  7.67179e-07
 Reference value :  7.67279e-07
 Reference value :  7.67379e-07
 Reference value :  7.67479e-07
 Reference value :  7.67579e-07
 Reference value :  7.67679e-07
 Reference value :  7.67779e-07
 Reference value :  7.67879e-07
 Reference value :  7.67979e-07
 Reference value :  7.68001e-07
 Reference value :  7.68010e-07
 Reference value :  7.68045e-07
 Reference value :  7.68142e-07
 Reference value :  7.68242e-07
 Reference value :  7.68342e-07
 Reference value :  7.68442e-07
 Reference value :  7.68542e-07
 Reference value :  7.68642e-07
 Reference value :  7.68742e-07
 Reference value :  7.68842e-07
 Reference value :  7.68942e-07
 Reference value :  7.69000e-07
 Reference value :  7.69003e-07
 Reference value :  7.69019e-07
 Reference value :  7.69042e-07
 Reference value :  7.69136e-07
 Reference value :  7.69186e-07
 Reference value :  7.69236e-07
 Reference value :  7.69336e-07
 Reference value :  7.69436e-07
 Reference value :  7.69536e-07
 Reference value :  7.69636e-07
 Reference value :  7.69736e-07
 Reference value :  7.69836e-07
 Reference value :  7.69936e-07
 Reference value :  7.70036e-07
 Reference value :  7.70136e-07
 Reference value :  7.70236e-07
 Reference value :  7.70336e-07
 Reference value :  7.70436e-07
 Reference value :  7.70536e-07
 Reference value :  7.70636e-07
 Reference value :  7.70736e-07
 Reference value :  7.70836e-07
 Reference value :  7.70936e-07
 Reference value :  7.71036e-07
 Reference value :  7.71136e-07
 Reference value :  7.71236e-07
 Reference value :  7.71336e-07
 Reference value :  7.71436e-07
 Reference value :  7.71536e-07
 Reference value :  7.71636e-07
 Reference value :  7.71736e-07
 Reference value :  7.71836e-07
 Reference value :  7.71936e-07
 Reference value :  7.72036e-07
 Reference value :  7.72136e-07
 Reference value :  7.72236e-07
 Reference value :  7.72336e-07
 Reference value :  7.72436e-07
 Reference value :  7.72536e-07
 Reference value :  7.72636e-07
 Reference value :  7.72736e-07
 Reference value :  7.72836e-07
 Reference value :  7.72936e-07
 Reference value :  7.73036e-07
 Reference value :  7.73136e-07
 Reference value :  7.73236e-07
 Reference value :  7.73336e-07
 Reference value :  7.73436e-07
 Reference value :  7.73536e-07
 Reference value :  7.73636e-07
 Reference value :  7.73736e-07
 Reference value :  7.73836e-07
 Reference value :  7.73936e-07
 Reference value :  7.74036e-07
 Reference value :  7.74136e-07
 Reference value :  7.74236e-07
 Reference value :  7.74336e-07
 Reference value :  7.74436e-07
 Reference value :  7.74536e-07
 Reference value :  7.74636e-07
 Reference value :  7.74736e-07
 Reference value :  7.74836e-07
 Reference value :  7.74936e-07
 Reference value :  7.75036e-07
 Reference value :  7.75136e-07
 Reference value :  7.75236e-07
 Reference value :  7.75336e-07
 Reference value :  7.75436e-07
 Reference value :  7.75536e-07
 Reference value :  7.75636e-07
 Reference value :  7.75736e-07
 Reference value :  7.75836e-07
 Reference value :  7.75936e-07
 Reference value :  7.76036e-07
 Reference value :  7.76136e-07
 Reference value :  7.76236e-07
 Reference value :  7.76336e-07
 Reference value :  7.76436e-07
 Reference value :  7.76536e-07
 Reference value :  7.76636e-07
 Reference value :  7.76736e-07
 Reference value :  7.76836e-07
 Reference value :  7.76936e-07
 Reference value :  7.77036e-07
 Reference value :  7.77136e-07
 Reference value :  7.77236e-07
 Reference value :  7.77336e-07
 Reference value :  7.77436e-07
 Reference value :  7.77536e-07
 Reference value :  7.77636e-07
 Reference value :  7.77736e-07
 Reference value :  7.77836e-07
 Reference value :  7.77936e-07
 Reference value :  7.78036e-07
 Reference value :  7.78136e-07
 Reference value :  7.78236e-07
 Reference value :  7.78336e-07
 Reference value :  7.78436e-07
 Reference value :  7.78536e-07
 Reference value :  7.78636e-07
 Reference value :  7.78736e-07
 Reference value :  7.78836e-07
 Reference value :  7.78936e-07
 Reference value :  7.79036e-07
 Reference value :  7.79136e-07
 Reference value :  7.79236e-07
 Reference value :  7.79336e-07
 Reference value :  7.79436e-07
 Reference value :  7.79536e-07
 Reference value :  7.79636e-07
 Reference value :  7.79736e-07
 Reference value :  7.79836e-07
 Reference value :  7.79936e-07
 Reference value :  7.80036e-07
 Reference value :  7.80136e-07
 Reference value :  7.80236e-07
 Reference value :  7.80336e-07
 Reference value :  7.80436e-07
 Reference value :  7.80536e-07
 Reference value :  7.80636e-07
 Reference value :  7.80736e-07
 Reference value :  7.80836e-07
 Reference value :  7.80936e-07
 Reference value :  7.81036e-07
 Reference value :  7.81136e-07
 Reference value :  7.81236e-07
 Reference value :  7.81336e-07
 Reference value :  7.81436e-07
 Reference value :  7.81536e-07
 Reference value :  7.81636e-07
 Reference value :  7.81736e-07
 Reference value :  7.81836e-07
 Reference value :  7.81936e-07
 Reference value :  7.82036e-07
 Reference value :  7.82136e-07
 Reference value :  7.82236e-07
 Reference value :  7.82336e-07
 Reference value :  7.82436e-07
 Reference value :  7.82536e-07
 Reference value :  7.82636e-07
 Reference value :  7.82736e-07
 Reference value :  7.82836e-07
 Reference value :  7.82936e-07
 Reference value :  7.83036e-07
 Reference value :  7.83136e-07
 Reference value :  7.83236e-07
 Reference value :  7.83336e-07
 Reference value :  7.83436e-07
 Reference value :  7.83536e-07
 Reference value :  7.83636e-07
 Reference value :  7.83736e-07
 Reference value :  7.83836e-07
 Reference value :  7.83936e-07
 Reference value :  7.84036e-07
 Reference value :  7.84136e-07
 Reference value :  7.84236e-07
 Reference value :  7.84336e-07
 Reference value :  7.84436e-07
 Reference value :  7.84536e-07
 Reference value :  7.84636e-07
 Reference value :  7.84736e-07
 Reference value :  7.84836e-07
 Reference value :  7.84936e-07
 Reference value :  7.85036e-07
 Reference value :  7.85136e-07
 Reference value :  7.85236e-07
 Reference value :  7.85336e-07
 Reference value :  7.85436e-07
 Reference value :  7.85536e-07
 Reference value :  7.85636e-07
 Reference value :  7.85736e-07
 Reference value :  7.85836e-07
 Reference value :  7.85936e-07
 Reference value :  7.86036e-07
 Reference value :  7.86136e-07
 Reference value :  7.86236e-07
 Reference value :  7.86336e-07
 Reference value :  7.86436e-07
 Reference value :  7.86536e-07
 Reference value :  7.86636e-07
 Reference value :  7.86736e-07
 Reference value :  7.86836e-07
 Reference value :  7.86936e-07
 Reference value :  7.87036e-07
 Reference value :  7.87136e-07
 Reference value :  7.87236e-07
 Reference value :  7.87336e-07
 Reference value :  7.87436e-07
 Reference value :  7.87536e-07
 Reference value :  7.87636e-07
 Reference value :  7.87736e-07
 Reference value :  7.87836e-07
 Reference value :  7.87936e-07
 Reference value :  7.88036e-07
 Reference value :  7.88136e-07
 Reference value :  7.88236e-07
 Reference value :  7.88336e-07
 Reference value :  7.88436e-07
 Reference value :  7.88536e-07
 Reference value :  7.88636e-07
 Reference value :  7.88736e-07
 Reference value :  7.88836e-07
 Reference value :  7.88936e-07
 Reference value :  7.89000e-07
 Reference value :  7.89004e-07
 Reference value :  7.89028e-07
 Reference value :  7.89109e-07
 Reference value :  7.89209e-07
 Reference value :  7.89309e-07
 Reference value :  7.89409e-07
 Reference value :  7.89509e-07
 Reference value :  7.89609e-07
 Reference value :  7.89709e-07
 Reference value :  7.89809e-07
 Reference value :  7.89859e-07
 Reference value :  7.89909e-07
 Reference value :  7.89959e-07
 Reference value :  7.90000e-07
 Reference value :  7.90003e-07
 Reference value :  7.90018e-07
 Reference value :  7.90079e-07
 Reference value :  7.90179e-07
 Reference value :  7.90279e-07
 Reference value :  7.90329e-07
 Reference value :  7.90379e-07
 Reference value :  7.90479e-07
 Reference value :  7.90579e-07
 Reference value :  7.90679e-07
 Reference value :  7.90779e-07
 Reference value :  7.90879e-07
 Reference value :  7.90979e-07
 Reference value :  7.91079e-07
 Reference value :  7.91179e-07
 Reference value :  7.91279e-07
 Reference value :  7.91379e-07
 Reference value :  7.91479e-07
 Reference value :  7.91579e-07
 Reference value :  7.91679e-07
 Reference value :  7.91779e-07
 Reference value :  7.91879e-07
 Reference value :  7.91979e-07
 Reference value :  7.92079e-07
 Reference value :  7.92179e-07
 Reference value :  7.92279e-07
 Reference value :  7.92379e-07
 Reference value :  7.92479e-07
 Reference value :  7.92579e-07
 Reference value :  7.92679e-07
 Reference value :  7.92779e-07
 Reference value :  7.92879e-07
 Reference value :  7.92979e-07
 Reference value :  7.93079e-07
 Reference value :  7.93179e-07
 Reference value :  7.93279e-07
 Reference value :  7.93379e-07
 Reference value :  7.93479e-07
 Reference value :  7.93579e-07
 Reference value :  7.93679e-07
 Reference value :  7.93779e-07
 Reference value :  7.93879e-07
 Reference value :  7.93979e-07
 Reference value :  7.94079e-07
 Reference value :  7.94179e-07
 Reference value :  7.94279e-07
 Reference value :  7.94379e-07
 Reference value :  7.94479e-07
 Reference value :  7.94579e-07
 Reference value :  7.94679e-07
 Reference value :  7.94779e-07
 Reference value :  7.94879e-07
 Reference value :  7.94979e-07
 Reference value :  7.95079e-07
 Reference value :  7.95179e-07
 Reference value :  7.95279e-07
 Reference value :  7.95379e-07
 Reference value :  7.95479e-07
 Reference value :  7.95579e-07
 Reference value :  7.95679e-07
 Reference value :  7.95779e-07
 Reference value :  7.95879e-07
 Reference value :  7.95979e-07
 Reference value :  7.96079e-07
 Reference value :  7.96179e-07
 Reference value :  7.96279e-07
 Reference value :  7.96379e-07
 Reference value :  7.96479e-07
 Reference value :  7.96579e-07
 Reference value :  7.96679e-07
 Reference value :  7.96779e-07
 Reference value :  7.96879e-07
 Reference value :  7.96979e-07
 Reference value :  7.97079e-07
 Reference value :  7.97179e-07
 Reference value :  7.97279e-07
 Reference value :  7.97379e-07
 Reference value :  7.97479e-07
 Reference value :  7.97579e-07
 Reference value :  7.97679e-07
 Reference value :  7.97779e-07
 Reference value :  7.97879e-07
 Reference value :  7.97979e-07
 Reference value :  7.98079e-07
 Reference value :  7.98179e-07
 Reference value :  7.98279e-07
 Reference value :  7.98379e-07
 Reference value :  7.98479e-07
 Reference value :  7.98579e-07
 Reference value :  7.98679e-07
 Reference value :  7.98779e-07
 Reference value :  7.98879e-07
 Reference value :  7.98979e-07
 Reference value :  7.99079e-07
 Reference value :  7.99179e-07
 Reference value :  7.99279e-07
 Reference value :  7.99379e-07
 Reference value :  7.99479e-07
 Reference value :  7.99579e-07
 Reference value :  7.99679e-07
 Reference value :  7.99779e-07
 Reference value :  7.99879e-07
 Reference value :  7.99979e-07
No. of Data Rows : 16354
binary raw file "flashADC_Testing_ext.raw"
binary raw file "/headless/.xschem/simulations/flashADC_Testing_ext.raw"
Doing analysis at TEMP = 27.000000 and TNOM = 27.000000


Total analysis time (seconds) = 2833.84

Total elapsed time (seconds) = 2996.542 

Total DRAM available = 15842.523 MB.
DRAM currently available = 14077.668 MB.
Maximum ngspice program size = 7989.148 MB.
Current ngspice program size =  129.172 MB.

Shared ngspice pages =    2.875 MB.
Text (code) pages =    5.887 MB.
Stack = 0 bytes.
Library pages = 7967.324 MB.

